1



                                ***********************************************
                                *                                             *
                                *  NUMERICAL ELECTROMAGNETICS CODE (NEC-4.1)  *
                                *                                             *
                                ***********************************************




                      **********************************************************

                                                                                                       
                                                                                                       

                      **********************************************************





                                 - - - STRUCTURE SPECIFICATION - - -

                                     COORDINATES MUST BE INPUT IN
                                     METERS OR BE SCALED TO METERS
                                     BEFORE STRUCTURE INPUT IS ENDED


  WIRE                                                                               NO. OF    FIRST  LAST     TAG
  NO.        X1         Y1         Z1          X2         Y2         Z2      RADIUS   SEG.     SEG.   SEG.     NO.
     1   -0.70350  -54.64000    1.51800    -1.35260  -54.64000    0.86890    0.01200      9        1     9       1
     2   -0.70350  -54.64000    1.51800    -1.35260  -54.40090    0.86890    0.01200      9       10    18       2
     3   -0.70350  -54.64000    1.51800    -1.35260  -54.87910    0.86890    0.01200      9       19    27       3
     4   -1.35260  -54.64000    0.86890    -1.35260  -54.40090    0.86890    0.01200      2       28    29       4
     5   -1.35260  -54.64000    0.86890    -1.35260  -54.87910    0.86890    0.01200      2       30    31       5
     6   -1.35260  -54.64000    0.86890    -1.71040  -54.64000    0.51110    0.01200      5       32    36       6
     7   -1.35260  -54.40090    0.86890    -1.71040  -54.26910    0.51110    0.01200      5       37    41       7
     8   -1.35260  -54.87910    0.86890    -1.71040  -55.01090    0.51110    0.01200      5       42    46       8
     9   -1.71040  -54.64000    0.51110    -1.71040  -54.26910    0.51110    0.01200      3       47    49       9
    10   -1.71040  -54.64000    0.51110    -1.71040  -55.01090    0.51110    0.01200      3       50    52      10
    11   -0.57650  -54.64000    1.51800     0.07260  -54.64000    0.86890    0.01200      9       53    61      11
    12   -0.57650  -54.64000    1.51800     0.07260  -54.40090    0.86890    0.01200      9       62    70      12
    13   -0.57650  -54.64000    1.51800     0.07260  -54.87910    0.86890    0.01200      9       71    79      13
    14    0.07260  -54.64000    0.86890     0.07260  -54.40090    0.86890    0.01200      2       80    81      14
    15    0.07260  -54.64000    0.86890     0.07260  -54.87910    0.86890    0.01200      2       82    83      15
    16    0.07260  -54.64000    0.86890     0.43040  -54.64000    0.51110    0.01200      5       84    88      16
    17    0.07260  -54.40090    0.86890     0.43040  -54.26910    0.51110    0.01200      5       89    93      17
    18    0.07260  -54.87910    0.86890     0.43040  -55.01090    0.51110    0.01200      5       94    98      18
    19    0.43040  -54.64000    0.51110     0.43040  -54.26910    0.51110    0.01200      3       99   101      19
    20    0.43040  -54.64000    0.51110     0.43040  -55.01090    0.51110    0.01200      3      102   104      20
    21   -0.70350  -54.64000    1.51800    -0.57650  -54.64000    1.51800    0.01200      3      105   107      21
    22   -0.64000  -54.57650    1.48200    -0.64000  -53.92740    0.83290    0.01200      9      108   116      22
    23   -0.64000  -54.57650    1.48200    -0.40090  -53.92740    0.83290    0.01200      9      117   125      23
    24   -0.64000  -54.57650    1.48200    -0.87910  -53.92740    0.83290    0.01200      9      126   134      24
    25   -0.64000  -53.92740    0.83290    -0.40090  -53.92740    0.83290    0.01200      2      135   136      25
    26   -0.64000  -53.92740    0.83290    -0.87910  -53.92740    0.83290    0.01200      2      137   138      26
    27   -0.64000  -53.92740    0.83290    -0.64000  -53.56960    0.47510    0.01200      5      139   143      27
    28   -0.40090  -53.92740    0.83290    -0.26910  -53.56960    0.47510    0.01200      5      144   148      28
    29   -0.87910  -53.92740    0.83290    -1.01090  -53.56960    0.47510    0.01200      5      149   153      29
    30   -0.64000  -53.56960    0.47510    -0.26910  -53.56960    0.47510    0.01200      3      154   156      30
    31   -0.64000  -53.56960    0.47510    -1.01090  -53.56960    0.47510    0.01200      3      157   159      31
    32   -0.64000  -54.70350    1.48200    -0.64000  -55.35260    0.83290    0.01200      9      160   168      32
    33   -0.64000  -54.70350    1.48200    -0.40090  -55.35260    0.83290    0.01200      9      169   177      33
    34   -0.64000  -54.70350    1.48200    -0.87910  -55.35260    0.83290    0.01200      9      178   186      34
    35   -0.64000  -55.35260    0.83290    -0.40090  -55.35260    0.83290    0.01200      2      187   188      35
    36   -0.64000  -55.35260    0.83290    -0.87910  -55.35260    0.83290    0.01200      2      189   190      36
    37   -0.64000  -55.35260    0.83290    -0.64000  -55.71040    0.47510    0.01200      5      191   195      37
    38   -0.40090  -55.35260    0.83290    -0.26910  -55.71040    0.47510    0.01200      5      196   200      38
    39   -0.87910  -55.35260    0.83290    -1.01090  -55.71040    0.47510    0.01200      5      201   205      39
    40   -0.64000  -55.71040    0.47510    -0.26910  -55.71040    0.47510    0.01200      3      206   208      40
    41   -0.64000  -55.71040    0.47510    -1.01090  -55.71040    0.47510    0.01200      3      209   211      41
    42   -0.64000  -54.57650    1.48200    -0.64000  -54.70350    1.48200    0.01200      3      212   214      42
    43   -2.14000  -56.14000    0.01000    -2.04000  -56.14000    0.01000    0.00100      1      215   215      43
    44   -2.14000  -56.04000    0.01000    -2.04000  -56.04000    0.01000    0.00100      1      216   216      44
    45   -2.14000  -55.94000    0.01000    -2.04000  -55.94000    0.01000    0.00100      1      217   217      45
    46   -2.14000  -55.84000    0.01000    -2.04000  -55.84000    0.01000    0.00100      1      218   218      46
    47   -2.14000  -55.74000    0.01000    -2.04000  -55.74000    0.01000    0.00100      1      219   219      47
    48   -2.14000  -55.64000    0.01000    -2.04000  -55.64000    0.01000    0.00100      1      220   220      48
    49   -2.14000  -55.54000    0.01000    -2.04000  -55.54000    0.01000    0.00100      1      221   221      49
    50   -2.14000  -55.44000    0.01000    -2.04000  -55.44000    0.01000    0.00100      1      222   222      50
    51   -2.14000  -55.34000    0.01000    -2.04000  -55.34000    0.01000    0.00100      1      223   223      51
    52   -2.14000  -55.24000    0.01000    -2.04000  -55.24000    0.01000    0.00100      1      224   224      52
    53   -2.14000  -55.14000    0.01000    -2.04000  -55.14000    0.01000    0.00100      1      225   225      53
    54   -2.14000  -55.04000    0.01000    -2.04000  -55.04000    0.01000    0.00100      1      226   226      54
    55   -2.14000  -54.94000    0.01000    -2.04000  -54.94000    0.01000    0.00100      1      227   227      55
    56   -2.14000  -54.84000    0.01000    -2.04000  -54.84000    0.01000    0.00100      1      228   228      56
    57   -2.14000  -54.74000    0.01000    -2.04000  -54.74000    0.01000    0.00100      1      229   229      57
    58   -2.14000  -54.64000    0.01000    -2.04000  -54.64000    0.01000    0.00100      1      230   230      58
    59   -2.14000  -54.54000    0.01000    -2.04000  -54.54000    0.01000    0.00100      1      231   231      59
    60   -2.14000  -54.44000    0.01000    -2.04000  -54.44000    0.01000    0.00100      1      232   232      60
    61   -2.14000  -54.34000    0.01000    -2.04000  -54.34000    0.01000    0.00100      1      233   233      61
    62   -2.14000  -54.24000    0.01000    -2.04000  -54.24000    0.01000    0.00100      1      234   234      62
    63   -2.14000  -54.14000    0.01000    -2.04000  -54.14000    0.01000    0.00100      1      235   235      63
    64   -2.14000  -54.04000    0.01000    -2.04000  -54.04000    0.01000    0.00100      1      236   236      64
    65   -2.14000  -53.94000    0.01000    -2.04000  -53.94000    0.01000    0.00100      1      237   237      65
    66   -2.14000  -53.84000    0.01000    -2.04000  -53.84000    0.01000    0.00100      1      238   238      66
    67   -2.14000  -53.74000    0.01000    -2.04000  -53.74000    0.01000    0.00100      1      239   239      67
    68   -2.14000  -53.64000    0.01000    -2.04000  -53.64000    0.01000    0.00100      1      240   240      68
    69   -2.14000  -53.54000    0.01000    -2.04000  -53.54000    0.01000    0.00100      1      241   241      69
    70   -2.14000  -53.44000    0.01000    -2.04000  -53.44000    0.01000    0.00100      1      242   242      70
    71   -2.14000  -53.34000    0.01000    -2.04000  -53.34000    0.01000    0.00100      1      243   243      71
    72   -2.14000  -53.24000    0.01000    -2.04000  -53.24000    0.01000    0.00100      1      244   244      72
    73   -2.14000  -53.14000    0.01000    -2.04000  -53.14000    0.01000    0.00100      1      245   245      73
    74   -2.04000  -56.14000    0.01000    -1.94000  -56.14000    0.01000    0.00100      1      246   246      74
    75   -2.04000  -56.04000    0.01000    -1.94000  -56.04000    0.01000    0.00100      1      247   247      75
    76   -2.04000  -55.94000    0.01000    -1.94000  -55.94000    0.01000    0.00100      1      248   248      76
    77   -2.04000  -55.84000    0.01000    -1.94000  -55.84000    0.01000    0.00100      1      249   249      77
    78   -2.04000  -55.74000    0.01000    -1.94000  -55.74000    0.01000    0.00100      1      250   250      78
    79   -2.04000  -55.64000    0.01000    -1.94000  -55.64000    0.01000    0.00100      1      251   251      79
    80   -2.04000  -55.54000    0.01000    -1.94000  -55.54000    0.01000    0.00100      1      252   252      80
    81   -2.04000  -55.44000    0.01000    -1.94000  -55.44000    0.01000    0.00100      1      253   253      81
    82   -2.04000  -55.34000    0.01000    -1.94000  -55.34000    0.01000    0.00100      1      254   254      82
    83   -2.04000  -55.24000    0.01000    -1.94000  -55.24000    0.01000    0.00100      1      255   255      83
    84   -2.04000  -55.14000    0.01000    -1.94000  -55.14000    0.01000    0.00100      1      256   256      84
    85   -2.04000  -55.04000    0.01000    -1.94000  -55.04000    0.01000    0.00100      1      257   257      85
    86   -2.04000  -54.94000    0.01000    -1.94000  -54.94000    0.01000    0.00100      1      258   258      86
    87   -2.04000  -54.84000    0.01000    -1.94000  -54.84000    0.01000    0.00100      1      259   259      87
    88   -2.04000  -54.74000    0.01000    -1.94000  -54.74000    0.01000    0.00100      1      260   260      88
    89   -2.04000  -54.64000    0.01000    -1.94000  -54.64000    0.01000    0.00100      1      261   261      89
    90   -2.04000  -54.54000    0.01000    -1.94000  -54.54000    0.01000    0.00100      1      262   262      90
    91   -2.04000  -54.44000    0.01000    -1.94000  -54.44000    0.01000    0.00100      1      263   263      91
    92   -2.04000  -54.34000    0.01000    -1.94000  -54.34000    0.01000    0.00100      1      264   264      92
    93   -2.04000  -54.24000    0.01000    -1.94000  -54.24000    0.01000    0.00100      1      265   265      93
    94   -2.04000  -54.14000    0.01000    -1.94000  -54.14000    0.01000    0.00100      1      266   266      94
    95   -2.04000  -54.04000    0.01000    -1.94000  -54.04000    0.01000    0.00100      1      267   267      95
    96   -2.04000  -53.94000    0.01000    -1.94000  -53.94000    0.01000    0.00100      1      268   268      96
    97   -2.04000  -53.84000    0.01000    -1.94000  -53.84000    0.01000    0.00100      1      269   269      97
    98   -2.04000  -53.74000    0.01000    -1.94000  -53.74000    0.01000    0.00100      1      270   270      98
    99   -2.04000  -53.64000    0.01000    -1.94000  -53.64000    0.01000    0.00100      1      271   271      99
   100   -2.04000  -53.54000    0.01000    -1.94000  -53.54000    0.01000    0.00100      1      272   272     100
   101   -2.04000  -53.44000    0.01000    -1.94000  -53.44000    0.01000    0.00100      1      273   273     101
   102   -2.04000  -53.34000    0.01000    -1.94000  -53.34000    0.01000    0.00100      1      274   274     102
   103   -2.04000  -53.24000    0.01000    -1.94000  -53.24000    0.01000    0.00100      1      275   275     103
   104   -2.04000  -53.14000    0.01000    -1.94000  -53.14000    0.01000    0.00100      1      276   276     104
   105   -1.94000  -56.14000    0.01000    -1.84000  -56.14000    0.01000    0.00100      1      277   277     105
   106   -1.94000  -56.04000    0.01000    -1.84000  -56.04000    0.01000    0.00100      1      278   278     106
   107   -1.94000  -55.94000    0.01000    -1.84000  -55.94000    0.01000    0.00100      1      279   279     107
   108   -1.94000  -55.84000    0.01000    -1.84000  -55.84000    0.01000    0.00100      1      280   280     108
   109   -1.94000  -55.74000    0.01000    -1.84000  -55.74000    0.01000    0.00100      1      281   281     109
   110   -1.94000  -55.64000    0.01000    -1.84000  -55.64000    0.01000    0.00100      1      282   282     110
   111   -1.94000  -55.54000    0.01000    -1.84000  -55.54000    0.01000    0.00100      1      283   283     111
   112   -1.94000  -55.44000    0.01000    -1.84000  -55.44000    0.01000    0.00100      1      284   284     112
   113   -1.94000  -55.34000    0.01000    -1.84000  -55.34000    0.01000    0.00100      1      285   285     113
   114   -1.94000  -55.24000    0.01000    -1.84000  -55.24000    0.01000    0.00100      1      286   286     114
   115   -1.94000  -55.14000    0.01000    -1.84000  -55.14000    0.01000    0.00100      1      287   287     115
   116   -1.94000  -55.04000    0.01000    -1.84000  -55.04000    0.01000    0.00100      1      288   288     116
   117   -1.94000  -54.94000    0.01000    -1.84000  -54.94000    0.01000    0.00100      1      289   289     117
   118   -1.94000  -54.84000    0.01000    -1.84000  -54.84000    0.01000    0.00100      1      290   290     118
   119   -1.94000  -54.74000    0.01000    -1.84000  -54.74000    0.01000    0.00100      1      291   291     119
   120   -1.94000  -54.64000    0.01000    -1.84000  -54.64000    0.01000    0.00100      1      292   292     120
   121   -1.94000  -54.54000    0.01000    -1.84000  -54.54000    0.01000    0.00100      1      293   293     121
   122   -1.94000  -54.44000    0.01000    -1.84000  -54.44000    0.01000    0.00100      1      294   294     122
   123   -1.94000  -54.34000    0.01000    -1.84000  -54.34000    0.01000    0.00100      1      295   295     123
   124   -1.94000  -54.24000    0.01000    -1.84000  -54.24000    0.01000    0.00100      1      296   296     124
   125   -1.94000  -54.14000    0.01000    -1.84000  -54.14000    0.01000    0.00100      1      297   297     125
   126   -1.94000  -54.04000    0.01000    -1.84000  -54.04000    0.01000    0.00100      1      298   298     126
   127   -1.94000  -53.94000    0.01000    -1.84000  -53.94000    0.01000    0.00100      1      299   299     127
   128   -1.94000  -53.84000    0.01000    -1.84000  -53.84000    0.01000    0.00100      1      300   300     128
   129   -1.94000  -53.74000    0.01000    -1.84000  -53.74000    0.01000    0.00100      1      301   301     129
   130   -1.94000  -53.64000    0.01000    -1.84000  -53.64000    0.01000    0.00100      1      302   302     130
   131   -1.94000  -53.54000    0.01000    -1.84000  -53.54000    0.01000    0.00100      1      303   303     131
   132   -1.94000  -53.44000    0.01000    -1.84000  -53.44000    0.01000    0.00100      1      304   304     132
   133   -1.94000  -53.34000    0.01000    -1.84000  -53.34000    0.01000    0.00100      1      305   305     133
   134   -1.94000  -53.24000    0.01000    -1.84000  -53.24000    0.01000    0.00100      1      306   306     134
   135   -1.94000  -53.14000    0.01000    -1.84000  -53.14000    0.01000    0.00100      1      307   307     135
   136   -1.84000  -56.14000    0.01000    -1.74000  -56.14000    0.01000    0.00100      1      308   308     136
   137   -1.84000  -56.04000    0.01000    -1.74000  -56.04000    0.01000    0.00100      1      309   309     137
   138   -1.84000  -55.94000    0.01000    -1.74000  -55.94000    0.01000    0.00100      1      310   310     138
   139   -1.84000  -55.84000    0.01000    -1.74000  -55.84000    0.01000    0.00100      1      311   311     139
   140   -1.84000  -55.74000    0.01000    -1.74000  -55.74000    0.01000    0.00100      1      312   312     140
   141   -1.84000  -55.64000    0.01000    -1.74000  -55.64000    0.01000    0.00100      1      313   313     141
   142   -1.84000  -55.54000    0.01000    -1.74000  -55.54000    0.01000    0.00100      1      314   314     142
   143   -1.84000  -55.44000    0.01000    -1.74000  -55.44000    0.01000    0.00100      1      315   315     143
   144   -1.84000  -55.34000    0.01000    -1.74000  -55.34000    0.01000    0.00100      1      316   316     144
   145   -1.84000  -55.24000    0.01000    -1.74000  -55.24000    0.01000    0.00100      1      317   317     145
   146   -1.84000  -55.14000    0.01000    -1.74000  -55.14000    0.01000    0.00100      1      318   318     146
   147   -1.84000  -55.04000    0.01000    -1.74000  -55.04000    0.01000    0.00100      1      319   319     147
   148   -1.84000  -54.94000    0.01000    -1.74000  -54.94000    0.01000    0.00100      1      320   320     148
   149   -1.84000  -54.84000    0.01000    -1.74000  -54.84000    0.01000    0.00100      1      321   321     149
   150   -1.84000  -54.74000    0.01000    -1.74000  -54.74000    0.01000    0.00100      1      322   322     150
   151   -1.84000  -54.64000    0.01000    -1.74000  -54.64000    0.01000    0.00100      1      323   323     151
   152   -1.84000  -54.54000    0.01000    -1.74000  -54.54000    0.01000    0.00100      1      324   324     152
   153   -1.84000  -54.44000    0.01000    -1.74000  -54.44000    0.01000    0.00100      1      325   325     153
   154   -1.84000  -54.34000    0.01000    -1.74000  -54.34000    0.01000    0.00100      1      326   326     154
   155   -1.84000  -54.24000    0.01000    -1.74000  -54.24000    0.01000    0.00100      1      327   327     155
   156   -1.84000  -54.14000    0.01000    -1.74000  -54.14000    0.01000    0.00100      1      328   328     156
   157   -1.84000  -54.04000    0.01000    -1.74000  -54.04000    0.01000    0.00100      1      329   329     157
   158   -1.84000  -53.94000    0.01000    -1.74000  -53.94000    0.01000    0.00100      1      330   330     158
   159   -1.84000  -53.84000    0.01000    -1.74000  -53.84000    0.01000    0.00100      1      331   331     159
   160   -1.84000  -53.74000    0.01000    -1.74000  -53.74000    0.01000    0.00100      1      332   332     160
   161   -1.84000  -53.64000    0.01000    -1.74000  -53.64000    0.01000    0.00100      1      333   333     161
   162   -1.84000  -53.54000    0.01000    -1.74000  -53.54000    0.01000    0.00100      1      334   334     162
   163   -1.84000  -53.44000    0.01000    -1.74000  -53.44000    0.01000    0.00100      1      335   335     163
   164   -1.84000  -53.34000    0.01000    -1.74000  -53.34000    0.01000    0.00100      1      336   336     164
   165   -1.84000  -53.24000    0.01000    -1.74000  -53.24000    0.01000    0.00100      1      337   337     165
   166   -1.84000  -53.14000    0.01000    -1.74000  -53.14000    0.01000    0.00100      1      338   338     166
   167   -1.74000  -56.14000    0.01000    -1.64000  -56.14000    0.01000    0.00100      1      339   339     167
   168   -1.74000  -56.04000    0.01000    -1.64000  -56.04000    0.01000    0.00100      1      340   340     168
   169   -1.74000  -55.94000    0.01000    -1.64000  -55.94000    0.01000    0.00100      1      341   341     169
   170   -1.74000  -55.84000    0.01000    -1.64000  -55.84000    0.01000    0.00100      1      342   342     170
   171   -1.74000  -55.74000    0.01000    -1.64000  -55.74000    0.01000    0.00100      1      343   343     171
   172   -1.74000  -55.64000    0.01000    -1.64000  -55.64000    0.01000    0.00100      1      344   344     172
   173   -1.74000  -55.54000    0.01000    -1.64000  -55.54000    0.01000    0.00100      1      345   345     173
   174   -1.74000  -55.44000    0.01000    -1.64000  -55.44000    0.01000    0.00100      1      346   346     174
   175   -1.74000  -55.34000    0.01000    -1.64000  -55.34000    0.01000    0.00100      1      347   347     175
   176   -1.74000  -55.24000    0.01000    -1.64000  -55.24000    0.01000    0.00100      1      348   348     176
   177   -1.74000  -55.14000    0.01000    -1.64000  -55.14000    0.01000    0.00100      1      349   349     177
   178   -1.74000  -55.04000    0.01000    -1.64000  -55.04000    0.01000    0.00100      1      350   350     178
   179   -1.74000  -54.94000    0.01000    -1.64000  -54.94000    0.01000    0.00100      1      351   351     179
   180   -1.74000  -54.84000    0.01000    -1.64000  -54.84000    0.01000    0.00100      1      352   352     180
   181   -1.74000  -54.74000    0.01000    -1.64000  -54.74000    0.01000    0.00100      1      353   353     181
   182   -1.74000  -54.64000    0.01000    -1.64000  -54.64000    0.01000    0.00100      1      354   354     182
   183   -1.74000  -54.54000    0.01000    -1.64000  -54.54000    0.01000    0.00100      1      355   355     183
   184   -1.74000  -54.44000    0.01000    -1.64000  -54.44000    0.01000    0.00100      1      356   356     184
   185   -1.74000  -54.34000    0.01000    -1.64000  -54.34000    0.01000    0.00100      1      357   357     185
   186   -1.74000  -54.24000    0.01000    -1.64000  -54.24000    0.01000    0.00100      1      358   358     186
   187   -1.74000  -54.14000    0.01000    -1.64000  -54.14000    0.01000    0.00100      1      359   359     187
   188   -1.74000  -54.04000    0.01000    -1.64000  -54.04000    0.01000    0.00100      1      360   360     188
   189   -1.74000  -53.94000    0.01000    -1.64000  -53.94000    0.01000    0.00100      1      361   361     189
   190   -1.74000  -53.84000    0.01000    -1.64000  -53.84000    0.01000    0.00100      1      362   362     190
   191   -1.74000  -53.74000    0.01000    -1.64000  -53.74000    0.01000    0.00100      1      363   363     191
   192   -1.74000  -53.64000    0.01000    -1.64000  -53.64000    0.01000    0.00100      1      364   364     192
   193   -1.74000  -53.54000    0.01000    -1.64000  -53.54000    0.01000    0.00100      1      365   365     193
   194   -1.74000  -53.44000    0.01000    -1.64000  -53.44000    0.01000    0.00100      1      366   366     194
   195   -1.74000  -53.34000    0.01000    -1.64000  -53.34000    0.01000    0.00100      1      367   367     195
   196   -1.74000  -53.24000    0.01000    -1.64000  -53.24000    0.01000    0.00100      1      368   368     196
   197   -1.74000  -53.14000    0.01000    -1.64000  -53.14000    0.01000    0.00100      1      369   369     197
   198   -1.64000  -56.14000    0.01000    -1.54000  -56.14000    0.01000    0.00100      1      370   370     198
   199   -1.64000  -56.04000    0.01000    -1.54000  -56.04000    0.01000    0.00100      1      371   371     199
   200   -1.64000  -55.94000    0.01000    -1.54000  -55.94000    0.01000    0.00100      1      372   372     200
   201   -1.64000  -55.84000    0.01000    -1.54000  -55.84000    0.01000    0.00100      1      373   373     201
   202   -1.64000  -55.74000    0.01000    -1.54000  -55.74000    0.01000    0.00100      1      374   374     202
   203   -1.64000  -55.64000    0.01000    -1.54000  -55.64000    0.01000    0.00100      1      375   375     203
   204   -1.64000  -55.54000    0.01000    -1.54000  -55.54000    0.01000    0.00100      1      376   376     204
   205   -1.64000  -55.44000    0.01000    -1.54000  -55.44000    0.01000    0.00100      1      377   377     205
   206   -1.64000  -55.34000    0.01000    -1.54000  -55.34000    0.01000    0.00100      1      378   378     206
   207   -1.64000  -55.24000    0.01000    -1.54000  -55.24000    0.01000    0.00100      1      379   379     207
   208   -1.64000  -55.14000    0.01000    -1.54000  -55.14000    0.01000    0.00100      1      380   380     208
   209   -1.64000  -55.04000    0.01000    -1.54000  -55.04000    0.01000    0.00100      1      381   381     209
   210   -1.64000  -54.94000    0.01000    -1.54000  -54.94000    0.01000    0.00100      1      382   382     210
   211   -1.64000  -54.84000    0.01000    -1.54000  -54.84000    0.01000    0.00100      1      383   383     211
   212   -1.64000  -54.74000    0.01000    -1.54000  -54.74000    0.01000    0.00100      1      384   384     212
   213   -1.64000  -54.64000    0.01000    -1.54000  -54.64000    0.01000    0.00100      1      385   385     213
   214   -1.64000  -54.54000    0.01000    -1.54000  -54.54000    0.01000    0.00100      1      386   386     214
   215   -1.64000  -54.44000    0.01000    -1.54000  -54.44000    0.01000    0.00100      1      387   387     215
   216   -1.64000  -54.34000    0.01000    -1.54000  -54.34000    0.01000    0.00100      1      388   388     216
   217   -1.64000  -54.24000    0.01000    -1.54000  -54.24000    0.01000    0.00100      1      389   389     217
   218   -1.64000  -54.14000    0.01000    -1.54000  -54.14000    0.01000    0.00100      1      390   390     218
   219   -1.64000  -54.04000    0.01000    -1.54000  -54.04000    0.01000    0.00100      1      391   391     219
   220   -1.64000  -53.94000    0.01000    -1.54000  -53.94000    0.01000    0.00100      1      392   392     220
   221   -1.64000  -53.84000    0.01000    -1.54000  -53.84000    0.01000    0.00100      1      393   393     221
   222   -1.64000  -53.74000    0.01000    -1.54000  -53.74000    0.01000    0.00100      1      394   394     222
   223   -1.64000  -53.64000    0.01000    -1.54000  -53.64000    0.01000    0.00100      1      395   395     223
   224   -1.64000  -53.54000    0.01000    -1.54000  -53.54000    0.01000    0.00100      1      396   396     224
   225   -1.64000  -53.44000    0.01000    -1.54000  -53.44000    0.01000    0.00100      1      397   397     225
   226   -1.64000  -53.34000    0.01000    -1.54000  -53.34000    0.01000    0.00100      1      398   398     226
   227   -1.64000  -53.24000    0.01000    -1.54000  -53.24000    0.01000    0.00100      1      399   399     227
   228   -1.64000  -53.14000    0.01000    -1.54000  -53.14000    0.01000    0.00100      1      400   400     228
   229   -1.54000  -56.14000    0.01000    -1.44000  -56.14000    0.01000    0.00100      1      401   401     229
   230   -1.54000  -56.04000    0.01000    -1.44000  -56.04000    0.01000    0.00100      1      402   402     230
   231   -1.54000  -55.94000    0.01000    -1.44000  -55.94000    0.01000    0.00100      1      403   403     231
   232   -1.54000  -55.84000    0.01000    -1.44000  -55.84000    0.01000    0.00100      1      404   404     232
   233   -1.54000  -55.74000    0.01000    -1.44000  -55.74000    0.01000    0.00100      1      405   405     233
   234   -1.54000  -55.64000    0.01000    -1.44000  -55.64000    0.01000    0.00100      1      406   406     234
   235   -1.54000  -55.54000    0.01000    -1.44000  -55.54000    0.01000    0.00100      1      407   407     235
   236   -1.54000  -55.44000    0.01000    -1.44000  -55.44000    0.01000    0.00100      1      408   408     236
   237   -1.54000  -55.34000    0.01000    -1.44000  -55.34000    0.01000    0.00100      1      409   409     237
   238   -1.54000  -55.24000    0.01000    -1.44000  -55.24000    0.01000    0.00100      1      410   410     238
   239   -1.54000  -55.14000    0.01000    -1.44000  -55.14000    0.01000    0.00100      1      411   411     239
   240   -1.54000  -55.04000    0.01000    -1.44000  -55.04000    0.01000    0.00100      1      412   412     240
   241   -1.54000  -54.94000    0.01000    -1.44000  -54.94000    0.01000    0.00100      1      413   413     241
   242   -1.54000  -54.84000    0.01000    -1.44000  -54.84000    0.01000    0.00100      1      414   414     242
   243   -1.54000  -54.74000    0.01000    -1.44000  -54.74000    0.01000    0.00100      1      415   415     243
   244   -1.54000  -54.64000    0.01000    -1.44000  -54.64000    0.01000    0.00100      1      416   416     244
   245   -1.54000  -54.54000    0.01000    -1.44000  -54.54000    0.01000    0.00100      1      417   417     245
   246   -1.54000  -54.44000    0.01000    -1.44000  -54.44000    0.01000    0.00100      1      418   418     246
   247   -1.54000  -54.34000    0.01000    -1.44000  -54.34000    0.01000    0.00100      1      419   419     247
   248   -1.54000  -54.24000    0.01000    -1.44000  -54.24000    0.01000    0.00100      1      420   420     248
   249   -1.54000  -54.14000    0.01000    -1.44000  -54.14000    0.01000    0.00100      1      421   421     249
   250   -1.54000  -54.04000    0.01000    -1.44000  -54.04000    0.01000    0.00100      1      422   422     250
   251   -1.54000  -53.94000    0.01000    -1.44000  -53.94000    0.01000    0.00100      1      423   423     251
   252   -1.54000  -53.84000    0.01000    -1.44000  -53.84000    0.01000    0.00100      1      424   424     252
   253   -1.54000  -53.74000    0.01000    -1.44000  -53.74000    0.01000    0.00100      1      425   425     253
   254   -1.54000  -53.64000    0.01000    -1.44000  -53.64000    0.01000    0.00100      1      426   426     254
   255   -1.54000  -53.54000    0.01000    -1.44000  -53.54000    0.01000    0.00100      1      427   427     255
   256   -1.54000  -53.44000    0.01000    -1.44000  -53.44000    0.01000    0.00100      1      428   428     256
   257   -1.54000  -53.34000    0.01000    -1.44000  -53.34000    0.01000    0.00100      1      429   429     257
   258   -1.54000  -53.24000    0.01000    -1.44000  -53.24000    0.01000    0.00100      1      430   430     258
   259   -1.54000  -53.14000    0.01000    -1.44000  -53.14000    0.01000    0.00100      1      431   431     259
   260   -1.44000  -56.14000    0.01000    -1.34000  -56.14000    0.01000    0.00100      1      432   432     260
   261   -1.44000  -56.04000    0.01000    -1.34000  -56.04000    0.01000    0.00100      1      433   433     261
   262   -1.44000  -55.94000    0.01000    -1.34000  -55.94000    0.01000    0.00100      1      434   434     262
   263   -1.44000  -55.84000    0.01000    -1.34000  -55.84000    0.01000    0.00100      1      435   435     263
   264   -1.44000  -55.74000    0.01000    -1.34000  -55.74000    0.01000    0.00100      1      436   436     264
   265   -1.44000  -55.64000    0.01000    -1.34000  -55.64000    0.01000    0.00100      1      437   437     265
   266   -1.44000  -55.54000    0.01000    -1.34000  -55.54000    0.01000    0.00100      1      438   438     266
   267   -1.44000  -55.44000    0.01000    -1.34000  -55.44000    0.01000    0.00100      1      439   439     267
   268   -1.44000  -55.34000    0.01000    -1.34000  -55.34000    0.01000    0.00100      1      440   440     268
   269   -1.44000  -55.24000    0.01000    -1.34000  -55.24000    0.01000    0.00100      1      441   441     269
   270   -1.44000  -55.14000    0.01000    -1.34000  -55.14000    0.01000    0.00100      1      442   442     270
   271   -1.44000  -55.04000    0.01000    -1.34000  -55.04000    0.01000    0.00100      1      443   443     271
   272   -1.44000  -54.94000    0.01000    -1.34000  -54.94000    0.01000    0.00100      1      444   444     272
   273   -1.44000  -54.84000    0.01000    -1.34000  -54.84000    0.01000    0.00100      1      445   445     273
   274   -1.44000  -54.74000    0.01000    -1.34000  -54.74000    0.01000    0.00100      1      446   446     274
   275   -1.44000  -54.64000    0.01000    -1.34000  -54.64000    0.01000    0.00100      1      447   447     275
   276   -1.44000  -54.54000    0.01000    -1.34000  -54.54000    0.01000    0.00100      1      448   448     276
   277   -1.44000  -54.44000    0.01000    -1.34000  -54.44000    0.01000    0.00100      1      449   449     277
   278   -1.44000  -54.34000    0.01000    -1.34000  -54.34000    0.01000    0.00100      1      450   450     278
   279   -1.44000  -54.24000    0.01000    -1.34000  -54.24000    0.01000    0.00100      1      451   451     279
   280   -1.44000  -54.14000    0.01000    -1.34000  -54.14000    0.01000    0.00100      1      452   452     280
   281   -1.44000  -54.04000    0.01000    -1.34000  -54.04000    0.01000    0.00100      1      453   453     281
   282   -1.44000  -53.94000    0.01000    -1.34000  -53.94000    0.01000    0.00100      1      454   454     282
   283   -1.44000  -53.84000    0.01000    -1.34000  -53.84000    0.01000    0.00100      1      455   455     283
   284   -1.44000  -53.74000    0.01000    -1.34000  -53.74000    0.01000    0.00100      1      456   456     284
   285   -1.44000  -53.64000    0.01000    -1.34000  -53.64000    0.01000    0.00100      1      457   457     285
   286   -1.44000  -53.54000    0.01000    -1.34000  -53.54000    0.01000    0.00100      1      458   458     286
   287   -1.44000  -53.44000    0.01000    -1.34000  -53.44000    0.01000    0.00100      1      459   459     287
   288   -1.44000  -53.34000    0.01000    -1.34000  -53.34000    0.01000    0.00100      1      460   460     288
   289   -1.44000  -53.24000    0.01000    -1.34000  -53.24000    0.01000    0.00100      1      461   461     289
   290   -1.44000  -53.14000    0.01000    -1.34000  -53.14000    0.01000    0.00100      1      462   462     290
   291   -1.34000  -56.14000    0.01000    -1.24000  -56.14000    0.01000    0.00100      1      463   463     291
   292   -1.34000  -56.04000    0.01000    -1.24000  -56.04000    0.01000    0.00100      1      464   464     292
   293   -1.34000  -55.94000    0.01000    -1.24000  -55.94000    0.01000    0.00100      1      465   465     293
   294   -1.34000  -55.84000    0.01000    -1.24000  -55.84000    0.01000    0.00100      1      466   466     294
   295   -1.34000  -55.74000    0.01000    -1.24000  -55.74000    0.01000    0.00100      1      467   467     295
   296   -1.34000  -55.64000    0.01000    -1.24000  -55.64000    0.01000    0.00100      1      468   468     296
   297   -1.34000  -55.54000    0.01000    -1.24000  -55.54000    0.01000    0.00100      1      469   469     297
   298   -1.34000  -55.44000    0.01000    -1.24000  -55.44000    0.01000    0.00100      1      470   470     298
   299   -1.34000  -55.34000    0.01000    -1.24000  -55.34000    0.01000    0.00100      1      471   471     299
   300   -1.34000  -55.24000    0.01000    -1.24000  -55.24000    0.01000    0.00100      1      472   472     300
   301   -1.34000  -55.14000    0.01000    -1.24000  -55.14000    0.01000    0.00100      1      473   473     301
   302   -1.34000  -55.04000    0.01000    -1.24000  -55.04000    0.01000    0.00100      1      474   474     302
   303   -1.34000  -54.94000    0.01000    -1.24000  -54.94000    0.01000    0.00100      1      475   475     303
   304   -1.34000  -54.84000    0.01000    -1.24000  -54.84000    0.01000    0.00100      1      476   476     304
   305   -1.34000  -54.74000    0.01000    -1.24000  -54.74000    0.01000    0.00100      1      477   477     305
   306   -1.34000  -54.64000    0.01000    -1.24000  -54.64000    0.01000    0.00100      1      478   478     306
   307   -1.34000  -54.54000    0.01000    -1.24000  -54.54000    0.01000    0.00100      1      479   479     307
   308   -1.34000  -54.44000    0.01000    -1.24000  -54.44000    0.01000    0.00100      1      480   480     308
   309   -1.34000  -54.34000    0.01000    -1.24000  -54.34000    0.01000    0.00100      1      481   481     309
   310   -1.34000  -54.24000    0.01000    -1.24000  -54.24000    0.01000    0.00100      1      482   482     310
   311   -1.34000  -54.14000    0.01000    -1.24000  -54.14000    0.01000    0.00100      1      483   483     311
   312   -1.34000  -54.04000    0.01000    -1.24000  -54.04000    0.01000    0.00100      1      484   484     312
   313   -1.34000  -53.94000    0.01000    -1.24000  -53.94000    0.01000    0.00100      1      485   485     313
   314   -1.34000  -53.84000    0.01000    -1.24000  -53.84000    0.01000    0.00100      1      486   486     314
   315   -1.34000  -53.74000    0.01000    -1.24000  -53.74000    0.01000    0.00100      1      487   487     315
   316   -1.34000  -53.64000    0.01000    -1.24000  -53.64000    0.01000    0.00100      1      488   488     316
   317   -1.34000  -53.54000    0.01000    -1.24000  -53.54000    0.01000    0.00100      1      489   489     317
   318   -1.34000  -53.44000    0.01000    -1.24000  -53.44000    0.01000    0.00100      1      490   490     318
   319   -1.34000  -53.34000    0.01000    -1.24000  -53.34000    0.01000    0.00100      1      491   491     319
   320   -1.34000  -53.24000    0.01000    -1.24000  -53.24000    0.01000    0.00100      1      492   492     320
   321   -1.34000  -53.14000    0.01000    -1.24000  -53.14000    0.01000    0.00100      1      493   493     321
   322   -1.24000  -56.14000    0.01000    -1.14000  -56.14000    0.01000    0.00100      1      494   494     322
   323   -1.24000  -56.04000    0.01000    -1.14000  -56.04000    0.01000    0.00100      1      495   495     323
   324   -1.24000  -55.94000    0.01000    -1.14000  -55.94000    0.01000    0.00100      1      496   496     324
   325   -1.24000  -55.84000    0.01000    -1.14000  -55.84000    0.01000    0.00100      1      497   497     325
   326   -1.24000  -55.74000    0.01000    -1.14000  -55.74000    0.01000    0.00100      1      498   498     326
   327   -1.24000  -55.64000    0.01000    -1.14000  -55.64000    0.01000    0.00100      1      499   499     327
   328   -1.24000  -55.54000    0.01000    -1.14000  -55.54000    0.01000    0.00100      1      500   500     328
   329   -1.24000  -55.44000    0.01000    -1.14000  -55.44000    0.01000    0.00100      1      501   501     329
   330   -1.24000  -55.34000    0.01000    -1.14000  -55.34000    0.01000    0.00100      1      502   502     330
   331   -1.24000  -55.24000    0.01000    -1.14000  -55.24000    0.01000    0.00100      1      503   503     331
   332   -1.24000  -55.14000    0.01000    -1.14000  -55.14000    0.01000    0.00100      1      504   504     332
   333   -1.24000  -55.04000    0.01000    -1.14000  -55.04000    0.01000    0.00100      1      505   505     333
   334   -1.24000  -54.94000    0.01000    -1.14000  -54.94000    0.01000    0.00100      1      506   506     334
   335   -1.24000  -54.84000    0.01000    -1.14000  -54.84000    0.01000    0.00100      1      507   507     335
   336   -1.24000  -54.74000    0.01000    -1.14000  -54.74000    0.01000    0.00100      1      508   508     336
   337   -1.24000  -54.64000    0.01000    -1.14000  -54.64000    0.01000    0.00100      1      509   509     337
   338   -1.24000  -54.54000    0.01000    -1.14000  -54.54000    0.01000    0.00100      1      510   510     338
   339   -1.24000  -54.44000    0.01000    -1.14000  -54.44000    0.01000    0.00100      1      511   511     339
   340   -1.24000  -54.34000    0.01000    -1.14000  -54.34000    0.01000    0.00100      1      512   512     340
   341   -1.24000  -54.24000    0.01000    -1.14000  -54.24000    0.01000    0.00100      1      513   513     341
   342   -1.24000  -54.14000    0.01000    -1.14000  -54.14000    0.01000    0.00100      1      514   514     342
   343   -1.24000  -54.04000    0.01000    -1.14000  -54.04000    0.01000    0.00100      1      515   515     343
   344   -1.24000  -53.94000    0.01000    -1.14000  -53.94000    0.01000    0.00100      1      516   516     344
   345   -1.24000  -53.84000    0.01000    -1.14000  -53.84000    0.01000    0.00100      1      517   517     345
   346   -1.24000  -53.74000    0.01000    -1.14000  -53.74000    0.01000    0.00100      1      518   518     346
   347   -1.24000  -53.64000    0.01000    -1.14000  -53.64000    0.01000    0.00100      1      519   519     347
   348   -1.24000  -53.54000    0.01000    -1.14000  -53.54000    0.01000    0.00100      1      520   520     348
   349   -1.24000  -53.44000    0.01000    -1.14000  -53.44000    0.01000    0.00100      1      521   521     349
   350   -1.24000  -53.34000    0.01000    -1.14000  -53.34000    0.01000    0.00100      1      522   522     350
   351   -1.24000  -53.24000    0.01000    -1.14000  -53.24000    0.01000    0.00100      1      523   523     351
   352   -1.24000  -53.14000    0.01000    -1.14000  -53.14000    0.01000    0.00100      1      524   524     352
   353   -1.14000  -56.14000    0.01000    -1.04000  -56.14000    0.01000    0.00100      1      525   525     353
   354   -1.14000  -56.04000    0.01000    -1.04000  -56.04000    0.01000    0.00100      1      526   526     354
   355   -1.14000  -55.94000    0.01000    -1.04000  -55.94000    0.01000    0.00100      1      527   527     355
   356   -1.14000  -55.84000    0.01000    -1.04000  -55.84000    0.01000    0.00100      1      528   528     356
   357   -1.14000  -55.74000    0.01000    -1.04000  -55.74000    0.01000    0.00100      1      529   529     357
   358   -1.14000  -55.64000    0.01000    -1.04000  -55.64000    0.01000    0.00100      1      530   530     358
   359   -1.14000  -55.54000    0.01000    -1.04000  -55.54000    0.01000    0.00100      1      531   531     359
   360   -1.14000  -55.44000    0.01000    -1.04000  -55.44000    0.01000    0.00100      1      532   532     360
   361   -1.14000  -55.34000    0.01000    -1.04000  -55.34000    0.01000    0.00100      1      533   533     361
   362   -1.14000  -55.24000    0.01000    -1.04000  -55.24000    0.01000    0.00100      1      534   534     362
   363   -1.14000  -55.14000    0.01000    -1.04000  -55.14000    0.01000    0.00100      1      535   535     363
   364   -1.14000  -55.04000    0.01000    -1.04000  -55.04000    0.01000    0.00100      1      536   536     364
   365   -1.14000  -54.94000    0.01000    -1.04000  -54.94000    0.01000    0.00100      1      537   537     365
   366   -1.14000  -54.84000    0.01000    -1.04000  -54.84000    0.01000    0.00100      1      538   538     366
   367   -1.14000  -54.74000    0.01000    -1.04000  -54.74000    0.01000    0.00100      1      539   539     367
   368   -1.14000  -54.64000    0.01000    -1.04000  -54.64000    0.01000    0.00100      1      540   540     368
   369   -1.14000  -54.54000    0.01000    -1.04000  -54.54000    0.01000    0.00100      1      541   541     369
   370   -1.14000  -54.44000    0.01000    -1.04000  -54.44000    0.01000    0.00100      1      542   542     370
   371   -1.14000  -54.34000    0.01000    -1.04000  -54.34000    0.01000    0.00100      1      543   543     371
   372   -1.14000  -54.24000    0.01000    -1.04000  -54.24000    0.01000    0.00100      1      544   544     372
   373   -1.14000  -54.14000    0.01000    -1.04000  -54.14000    0.01000    0.00100      1      545   545     373
   374   -1.14000  -54.04000    0.01000    -1.04000  -54.04000    0.01000    0.00100      1      546   546     374
   375   -1.14000  -53.94000    0.01000    -1.04000  -53.94000    0.01000    0.00100      1      547   547     375
   376   -1.14000  -53.84000    0.01000    -1.04000  -53.84000    0.01000    0.00100      1      548   548     376
   377   -1.14000  -53.74000    0.01000    -1.04000  -53.74000    0.01000    0.00100      1      549   549     377
   378   -1.14000  -53.64000    0.01000    -1.04000  -53.64000    0.01000    0.00100      1      550   550     378
   379   -1.14000  -53.54000    0.01000    -1.04000  -53.54000    0.01000    0.00100      1      551   551     379
   380   -1.14000  -53.44000    0.01000    -1.04000  -53.44000    0.01000    0.00100      1      552   552     380
   381   -1.14000  -53.34000    0.01000    -1.04000  -53.34000    0.01000    0.00100      1      553   553     381
   382   -1.14000  -53.24000    0.01000    -1.04000  -53.24000    0.01000    0.00100      1      554   554     382
   383   -1.14000  -53.14000    0.01000    -1.04000  -53.14000    0.01000    0.00100      1      555   555     383
   384   -1.04000  -56.14000    0.01000    -0.94000  -56.14000    0.01000    0.00100      1      556   556     384
   385   -1.04000  -56.04000    0.01000    -0.94000  -56.04000    0.01000    0.00100      1      557   557     385
   386   -1.04000  -55.94000    0.01000    -0.94000  -55.94000    0.01000    0.00100      1      558   558     386
   387   -1.04000  -55.84000    0.01000    -0.94000  -55.84000    0.01000    0.00100      1      559   559     387
   388   -1.04000  -55.74000    0.01000    -0.94000  -55.74000    0.01000    0.00100      1      560   560     388
   389   -1.04000  -55.64000    0.01000    -0.94000  -55.64000    0.01000    0.00100      1      561   561     389
   390   -1.04000  -55.54000    0.01000    -0.94000  -55.54000    0.01000    0.00100      1      562   562     390
   391   -1.04000  -55.44000    0.01000    -0.94000  -55.44000    0.01000    0.00100      1      563   563     391
   392   -1.04000  -55.34000    0.01000    -0.94000  -55.34000    0.01000    0.00100      1      564   564     392
   393   -1.04000  -55.24000    0.01000    -0.94000  -55.24000    0.01000    0.00100      1      565   565     393
   394   -1.04000  -55.14000    0.01000    -0.94000  -55.14000    0.01000    0.00100      1      566   566     394
   395   -1.04000  -55.04000    0.01000    -0.94000  -55.04000    0.01000    0.00100      1      567   567     395
   396   -1.04000  -54.94000    0.01000    -0.94000  -54.94000    0.01000    0.00100      1      568   568     396
   397   -1.04000  -54.84000    0.01000    -0.94000  -54.84000    0.01000    0.00100      1      569   569     397
   398   -1.04000  -54.74000    0.01000    -0.94000  -54.74000    0.01000    0.00100      1      570   570     398
   399   -1.04000  -54.64000    0.01000    -0.94000  -54.64000    0.01000    0.00100      1      571   571     399
   400   -1.04000  -54.54000    0.01000    -0.94000  -54.54000    0.01000    0.00100      1      572   572     400
   401   -1.04000  -54.44000    0.01000    -0.94000  -54.44000    0.01000    0.00100      1      573   573     401
   402   -1.04000  -54.34000    0.01000    -0.94000  -54.34000    0.01000    0.00100      1      574   574     402
   403   -1.04000  -54.24000    0.01000    -0.94000  -54.24000    0.01000    0.00100      1      575   575     403
   404   -1.04000  -54.14000    0.01000    -0.94000  -54.14000    0.01000    0.00100      1      576   576     404
   405   -1.04000  -54.04000    0.01000    -0.94000  -54.04000    0.01000    0.00100      1      577   577     405
   406   -1.04000  -53.94000    0.01000    -0.94000  -53.94000    0.01000    0.00100      1      578   578     406
   407   -1.04000  -53.84000    0.01000    -0.94000  -53.84000    0.01000    0.00100      1      579   579     407
   408   -1.04000  -53.74000    0.01000    -0.94000  -53.74000    0.01000    0.00100      1      580   580     408
   409   -1.04000  -53.64000    0.01000    -0.94000  -53.64000    0.01000    0.00100      1      581   581     409
   410   -1.04000  -53.54000    0.01000    -0.94000  -53.54000    0.01000    0.00100      1      582   582     410
   411   -1.04000  -53.44000    0.01000    -0.94000  -53.44000    0.01000    0.00100      1      583   583     411
   412   -1.04000  -53.34000    0.01000    -0.94000  -53.34000    0.01000    0.00100      1      584   584     412
   413   -1.04000  -53.24000    0.01000    -0.94000  -53.24000    0.01000    0.00100      1      585   585     413
   414   -1.04000  -53.14000    0.01000    -0.94000  -53.14000    0.01000    0.00100      1      586   586     414
   415   -0.94000  -56.14000    0.01000    -0.84000  -56.14000    0.01000    0.00100      1      587   587     415
   416   -0.94000  -56.04000    0.01000    -0.84000  -56.04000    0.01000    0.00100      1      588   588     416
   417   -0.94000  -55.94000    0.01000    -0.84000  -55.94000    0.01000    0.00100      1      589   589     417
   418   -0.94000  -55.84000    0.01000    -0.84000  -55.84000    0.01000    0.00100      1      590   590     418
   419   -0.94000  -55.74000    0.01000    -0.84000  -55.74000    0.01000    0.00100      1      591   591     419
   420   -0.94000  -55.64000    0.01000    -0.84000  -55.64000    0.01000    0.00100      1      592   592     420
   421   -0.94000  -55.54000    0.01000    -0.84000  -55.54000    0.01000    0.00100      1      593   593     421
   422   -0.94000  -55.44000    0.01000    -0.84000  -55.44000    0.01000    0.00100      1      594   594     422
   423   -0.94000  -55.34000    0.01000    -0.84000  -55.34000    0.01000    0.00100      1      595   595     423
   424   -0.94000  -55.24000    0.01000    -0.84000  -55.24000    0.01000    0.00100      1      596   596     424
   425   -0.94000  -55.14000    0.01000    -0.84000  -55.14000    0.01000    0.00100      1      597   597     425
   426   -0.94000  -55.04000    0.01000    -0.84000  -55.04000    0.01000    0.00100      1      598   598     426
   427   -0.94000  -54.94000    0.01000    -0.84000  -54.94000    0.01000    0.00100      1      599   599     427
   428   -0.94000  -54.84000    0.01000    -0.84000  -54.84000    0.01000    0.00100      1      600   600     428
   429   -0.94000  -54.74000    0.01000    -0.84000  -54.74000    0.01000    0.00100      1      601   601     429
   430   -0.94000  -54.64000    0.01000    -0.84000  -54.64000    0.01000    0.00100      1      602   602     430
   431   -0.94000  -54.54000    0.01000    -0.84000  -54.54000    0.01000    0.00100      1      603   603     431
   432   -0.94000  -54.44000    0.01000    -0.84000  -54.44000    0.01000    0.00100      1      604   604     432
   433   -0.94000  -54.34000    0.01000    -0.84000  -54.34000    0.01000    0.00100      1      605   605     433
   434   -0.94000  -54.24000    0.01000    -0.84000  -54.24000    0.01000    0.00100      1      606   606     434
   435   -0.94000  -54.14000    0.01000    -0.84000  -54.14000    0.01000    0.00100      1      607   607     435
   436   -0.94000  -54.04000    0.01000    -0.84000  -54.04000    0.01000    0.00100      1      608   608     436
   437   -0.94000  -53.94000    0.01000    -0.84000  -53.94000    0.01000    0.00100      1      609   609     437
   438   -0.94000  -53.84000    0.01000    -0.84000  -53.84000    0.01000    0.00100      1      610   610     438
   439   -0.94000  -53.74000    0.01000    -0.84000  -53.74000    0.01000    0.00100      1      611   611     439
   440   -0.94000  -53.64000    0.01000    -0.84000  -53.64000    0.01000    0.00100      1      612   612     440
   441   -0.94000  -53.54000    0.01000    -0.84000  -53.54000    0.01000    0.00100      1      613   613     441
   442   -0.94000  -53.44000    0.01000    -0.84000  -53.44000    0.01000    0.00100      1      614   614     442
   443   -0.94000  -53.34000    0.01000    -0.84000  -53.34000    0.01000    0.00100      1      615   615     443
   444   -0.94000  -53.24000    0.01000    -0.84000  -53.24000    0.01000    0.00100      1      616   616     444
   445   -0.94000  -53.14000    0.01000    -0.84000  -53.14000    0.01000    0.00100      1      617   617     445
   446   -0.84000  -56.14000    0.01000    -0.74000  -56.14000    0.01000    0.00100      1      618   618     446
   447   -0.84000  -56.04000    0.01000    -0.74000  -56.04000    0.01000    0.00100      1      619   619     447
   448   -0.84000  -55.94000    0.01000    -0.74000  -55.94000    0.01000    0.00100      1      620   620     448
   449   -0.84000  -55.84000    0.01000    -0.74000  -55.84000    0.01000    0.00100      1      621   621     449
   450   -0.84000  -55.74000    0.01000    -0.74000  -55.74000    0.01000    0.00100      1      622   622     450
   451   -0.84000  -55.64000    0.01000    -0.74000  -55.64000    0.01000    0.00100      1      623   623     451
   452   -0.84000  -55.54000    0.01000    -0.74000  -55.54000    0.01000    0.00100      1      624   624     452
   453   -0.84000  -55.44000    0.01000    -0.74000  -55.44000    0.01000    0.00100      1      625   625     453
   454   -0.84000  -55.34000    0.01000    -0.74000  -55.34000    0.01000    0.00100      1      626   626     454
   455   -0.84000  -55.24000    0.01000    -0.74000  -55.24000    0.01000    0.00100      1      627   627     455
   456   -0.84000  -55.14000    0.01000    -0.74000  -55.14000    0.01000    0.00100      1      628   628     456
   457   -0.84000  -55.04000    0.01000    -0.74000  -55.04000    0.01000    0.00100      1      629   629     457
   458   -0.84000  -54.94000    0.01000    -0.74000  -54.94000    0.01000    0.00100      1      630   630     458
   459   -0.84000  -54.84000    0.01000    -0.74000  -54.84000    0.01000    0.00100      1      631   631     459
   460   -0.84000  -54.74000    0.01000    -0.74000  -54.74000    0.01000    0.00100      1      632   632     460
   461   -0.84000  -54.64000    0.01000    -0.74000  -54.64000    0.01000    0.00100      1      633   633     461
   462   -0.84000  -54.54000    0.01000    -0.74000  -54.54000    0.01000    0.00100      1      634   634     462
   463   -0.84000  -54.44000    0.01000    -0.74000  -54.44000    0.01000    0.00100      1      635   635     463
   464   -0.84000  -54.34000    0.01000    -0.74000  -54.34000    0.01000    0.00100      1      636   636     464
   465   -0.84000  -54.24000    0.01000    -0.74000  -54.24000    0.01000    0.00100      1      637   637     465
   466   -0.84000  -54.14000    0.01000    -0.74000  -54.14000    0.01000    0.00100      1      638   638     466
   467   -0.84000  -54.04000    0.01000    -0.74000  -54.04000    0.01000    0.00100      1      639   639     467
   468   -0.84000  -53.94000    0.01000    -0.74000  -53.94000    0.01000    0.00100      1      640   640     468
   469   -0.84000  -53.84000    0.01000    -0.74000  -53.84000    0.01000    0.00100      1      641   641     469
   470   -0.84000  -53.74000    0.01000    -0.74000  -53.74000    0.01000    0.00100      1      642   642     470
   471   -0.84000  -53.64000    0.01000    -0.74000  -53.64000    0.01000    0.00100      1      643   643     471
   472   -0.84000  -53.54000    0.01000    -0.74000  -53.54000    0.01000    0.00100      1      644   644     472
   473   -0.84000  -53.44000    0.01000    -0.74000  -53.44000    0.01000    0.00100      1      645   645     473
   474   -0.84000  -53.34000    0.01000    -0.74000  -53.34000    0.01000    0.00100      1      646   646     474
   475   -0.84000  -53.24000    0.01000    -0.74000  -53.24000    0.01000    0.00100      1      647   647     475
   476   -0.84000  -53.14000    0.01000    -0.74000  -53.14000    0.01000    0.00100      1      648   648     476
   477   -0.74000  -56.14000    0.01000    -0.64000  -56.14000    0.01000    0.00100      1      649   649     477
   478   -0.74000  -56.04000    0.01000    -0.64000  -56.04000    0.01000    0.00100      1      650   650     478
   479   -0.74000  -55.94000    0.01000    -0.64000  -55.94000    0.01000    0.00100      1      651   651     479
   480   -0.74000  -55.84000    0.01000    -0.64000  -55.84000    0.01000    0.00100      1      652   652     480
   481   -0.74000  -55.74000    0.01000    -0.64000  -55.74000    0.01000    0.00100      1      653   653     481
   482   -0.74000  -55.64000    0.01000    -0.64000  -55.64000    0.01000    0.00100      1      654   654     482
   483   -0.74000  -55.54000    0.01000    -0.64000  -55.54000    0.01000    0.00100      1      655   655     483
   484   -0.74000  -55.44000    0.01000    -0.64000  -55.44000    0.01000    0.00100      1      656   656     484
   485   -0.74000  -55.34000    0.01000    -0.64000  -55.34000    0.01000    0.00100      1      657   657     485
   486   -0.74000  -55.24000    0.01000    -0.64000  -55.24000    0.01000    0.00100      1      658   658     486
   487   -0.74000  -55.14000    0.01000    -0.64000  -55.14000    0.01000    0.00100      1      659   659     487
   488   -0.74000  -55.04000    0.01000    -0.64000  -55.04000    0.01000    0.00100      1      660   660     488
   489   -0.74000  -54.94000    0.01000    -0.64000  -54.94000    0.01000    0.00100      1      661   661     489
   490   -0.74000  -54.84000    0.01000    -0.64000  -54.84000    0.01000    0.00100      1      662   662     490
   491   -0.74000  -54.74000    0.01000    -0.64000  -54.74000    0.01000    0.00100      1      663   663     491
   492   -0.74000  -54.54000    0.01000    -0.64000  -54.54000    0.01000    0.00100      1      664   664     492
   493   -0.74000  -54.44000    0.01000    -0.64000  -54.44000    0.01000    0.00100      1      665   665     493
   494   -0.74000  -54.34000    0.01000    -0.64000  -54.34000    0.01000    0.00100      1      666   666     494
   495   -0.74000  -54.24000    0.01000    -0.64000  -54.24000    0.01000    0.00100      1      667   667     495
   496   -0.74000  -54.14000    0.01000    -0.64000  -54.14000    0.01000    0.00100      1      668   668     496
   497   -0.74000  -54.04000    0.01000    -0.64000  -54.04000    0.01000    0.00100      1      669   669     497
   498   -0.74000  -53.94000    0.01000    -0.64000  -53.94000    0.01000    0.00100      1      670   670     498
   499   -0.74000  -53.84000    0.01000    -0.64000  -53.84000    0.01000    0.00100      1      671   671     499
   500   -0.74000  -53.74000    0.01000    -0.64000  -53.74000    0.01000    0.00100      1      672   672     500
   501   -0.74000  -53.64000    0.01000    -0.64000  -53.64000    0.01000    0.00100      1      673   673     501
   502   -0.74000  -53.54000    0.01000    -0.64000  -53.54000    0.01000    0.00100      1      674   674     502
   503   -0.74000  -53.44000    0.01000    -0.64000  -53.44000    0.01000    0.00100      1      675   675     503
   504   -0.74000  -53.34000    0.01000    -0.64000  -53.34000    0.01000    0.00100      1      676   676     504
   505   -0.74000  -53.24000    0.01000    -0.64000  -53.24000    0.01000    0.00100      1      677   677     505
   506   -0.74000  -53.14000    0.01000    -0.64000  -53.14000    0.01000    0.00100      1      678   678     506
   507   -0.64000  -56.14000    0.01000    -0.54000  -56.14000    0.01000    0.00100      1      679   679     507
   508   -0.64000  -56.04000    0.01000    -0.54000  -56.04000    0.01000    0.00100      1      680   680     508
   509   -0.64000  -55.94000    0.01000    -0.54000  -55.94000    0.01000    0.00100      1      681   681     509
   510   -0.64000  -55.84000    0.01000    -0.54000  -55.84000    0.01000    0.00100      1      682   682     510
   511   -0.64000  -55.74000    0.01000    -0.54000  -55.74000    0.01000    0.00100      1      683   683     511
   512   -0.64000  -55.64000    0.01000    -0.54000  -55.64000    0.01000    0.00100      1      684   684     512
   513   -0.64000  -55.54000    0.01000    -0.54000  -55.54000    0.01000    0.00100      1      685   685     513
   514   -0.64000  -55.44000    0.01000    -0.54000  -55.44000    0.01000    0.00100      1      686   686     514
   515   -0.64000  -55.34000    0.01000    -0.54000  -55.34000    0.01000    0.00100      1      687   687     515
   516   -0.64000  -55.24000    0.01000    -0.54000  -55.24000    0.01000    0.00100      1      688   688     516
   517   -0.64000  -55.14000    0.01000    -0.54000  -55.14000    0.01000    0.00100      1      689   689     517
   518   -0.64000  -55.04000    0.01000    -0.54000  -55.04000    0.01000    0.00100      1      690   690     518
   519   -0.64000  -54.94000    0.01000    -0.54000  -54.94000    0.01000    0.00100      1      691   691     519
   520   -0.64000  -54.84000    0.01000    -0.54000  -54.84000    0.01000    0.00100      1      692   692     520
   521   -0.64000  -54.74000    0.01000    -0.54000  -54.74000    0.01000    0.00100      1      693   693     521
   522   -0.64000  -54.54000    0.01000    -0.54000  -54.54000    0.01000    0.00100      1      694   694     522
   523   -0.64000  -54.44000    0.01000    -0.54000  -54.44000    0.01000    0.00100      1      695   695     523
   524   -0.64000  -54.34000    0.01000    -0.54000  -54.34000    0.01000    0.00100      1      696   696     524
   525   -0.64000  -54.24000    0.01000    -0.54000  -54.24000    0.01000    0.00100      1      697   697     525
   526   -0.64000  -54.14000    0.01000    -0.54000  -54.14000    0.01000    0.00100      1      698   698     526
   527   -0.64000  -54.04000    0.01000    -0.54000  -54.04000    0.01000    0.00100      1      699   699     527
   528   -0.64000  -53.94000    0.01000    -0.54000  -53.94000    0.01000    0.00100      1      700   700     528
   529   -0.64000  -53.84000    0.01000    -0.54000  -53.84000    0.01000    0.00100      1      701   701     529
   530   -0.64000  -53.74000    0.01000    -0.54000  -53.74000    0.01000    0.00100      1      702   702     530
   531   -0.64000  -53.64000    0.01000    -0.54000  -53.64000    0.01000    0.00100      1      703   703     531
   532   -0.64000  -53.54000    0.01000    -0.54000  -53.54000    0.01000    0.00100      1      704   704     532
   533   -0.64000  -53.44000    0.01000    -0.54000  -53.44000    0.01000    0.00100      1      705   705     533
   534   -0.64000  -53.34000    0.01000    -0.54000  -53.34000    0.01000    0.00100      1      706   706     534
   535   -0.64000  -53.24000    0.01000    -0.54000  -53.24000    0.01000    0.00100      1      707   707     535
   536   -0.64000  -53.14000    0.01000    -0.54000  -53.14000    0.01000    0.00100      1      708   708     536
   537   -0.54000  -56.14000    0.01000    -0.44000  -56.14000    0.01000    0.00100      1      709   709     537
   538   -0.54000  -56.04000    0.01000    -0.44000  -56.04000    0.01000    0.00100      1      710   710     538
   539   -0.54000  -55.94000    0.01000    -0.44000  -55.94000    0.01000    0.00100      1      711   711     539
   540   -0.54000  -55.84000    0.01000    -0.44000  -55.84000    0.01000    0.00100      1      712   712     540
   541   -0.54000  -55.74000    0.01000    -0.44000  -55.74000    0.01000    0.00100      1      713   713     541
   542   -0.54000  -55.64000    0.01000    -0.44000  -55.64000    0.01000    0.00100      1      714   714     542
   543   -0.54000  -55.54000    0.01000    -0.44000  -55.54000    0.01000    0.00100      1      715   715     543
   544   -0.54000  -55.44000    0.01000    -0.44000  -55.44000    0.01000    0.00100      1      716   716     544
   545   -0.54000  -55.34000    0.01000    -0.44000  -55.34000    0.01000    0.00100      1      717   717     545
   546   -0.54000  -55.24000    0.01000    -0.44000  -55.24000    0.01000    0.00100      1      718   718     546
   547   -0.54000  -55.14000    0.01000    -0.44000  -55.14000    0.01000    0.00100      1      719   719     547
   548   -0.54000  -55.04000    0.01000    -0.44000  -55.04000    0.01000    0.00100      1      720   720     548
   549   -0.54000  -54.94000    0.01000    -0.44000  -54.94000    0.01000    0.00100      1      721   721     549
   550   -0.54000  -54.84000    0.01000    -0.44000  -54.84000    0.01000    0.00100      1      722   722     550
   551   -0.54000  -54.74000    0.01000    -0.44000  -54.74000    0.01000    0.00100      1      723   723     551
   552   -0.54000  -54.64000    0.01000    -0.44000  -54.64000    0.01000    0.00100      1      724   724     552
   553   -0.54000  -54.54000    0.01000    -0.44000  -54.54000    0.01000    0.00100      1      725   725     553
   554   -0.54000  -54.44000    0.01000    -0.44000  -54.44000    0.01000    0.00100      1      726   726     554
   555   -0.54000  -54.34000    0.01000    -0.44000  -54.34000    0.01000    0.00100      1      727   727     555
   556   -0.54000  -54.24000    0.01000    -0.44000  -54.24000    0.01000    0.00100      1      728   728     556
   557   -0.54000  -54.14000    0.01000    -0.44000  -54.14000    0.01000    0.00100      1      729   729     557
   558   -0.54000  -54.04000    0.01000    -0.44000  -54.04000    0.01000    0.00100      1      730   730     558
   559   -0.54000  -53.94000    0.01000    -0.44000  -53.94000    0.01000    0.00100      1      731   731     559
   560   -0.54000  -53.84000    0.01000    -0.44000  -53.84000    0.01000    0.00100      1      732   732     560
   561   -0.54000  -53.74000    0.01000    -0.44000  -53.74000    0.01000    0.00100      1      733   733     561
   562   -0.54000  -53.64000    0.01000    -0.44000  -53.64000    0.01000    0.00100      1      734   734     562
   563   -0.54000  -53.54000    0.01000    -0.44000  -53.54000    0.01000    0.00100      1      735   735     563
   564   -0.54000  -53.44000    0.01000    -0.44000  -53.44000    0.01000    0.00100      1      736   736     564
   565   -0.54000  -53.34000    0.01000    -0.44000  -53.34000    0.01000    0.00100      1      737   737     565
   566   -0.54000  -53.24000    0.01000    -0.44000  -53.24000    0.01000    0.00100      1      738   738     566
   567   -0.54000  -53.14000    0.01000    -0.44000  -53.14000    0.01000    0.00100      1      739   739     567
   568   -0.44000  -56.14000    0.01000    -0.34000  -56.14000    0.01000    0.00100      1      740   740     568
   569   -0.44000  -56.04000    0.01000    -0.34000  -56.04000    0.01000    0.00100      1      741   741     569
   570   -0.44000  -55.94000    0.01000    -0.34000  -55.94000    0.01000    0.00100      1      742   742     570
   571   -0.44000  -55.84000    0.01000    -0.34000  -55.84000    0.01000    0.00100      1      743   743     571
   572   -0.44000  -55.74000    0.01000    -0.34000  -55.74000    0.01000    0.00100      1      744   744     572
   573   -0.44000  -55.64000    0.01000    -0.34000  -55.64000    0.01000    0.00100      1      745   745     573
   574   -0.44000  -55.54000    0.01000    -0.34000  -55.54000    0.01000    0.00100      1      746   746     574
   575   -0.44000  -55.44000    0.01000    -0.34000  -55.44000    0.01000    0.00100      1      747   747     575
   576   -0.44000  -55.34000    0.01000    -0.34000  -55.34000    0.01000    0.00100      1      748   748     576
   577   -0.44000  -55.24000    0.01000    -0.34000  -55.24000    0.01000    0.00100      1      749   749     577
   578   -0.44000  -55.14000    0.01000    -0.34000  -55.14000    0.01000    0.00100      1      750   750     578
   579   -0.44000  -55.04000    0.01000    -0.34000  -55.04000    0.01000    0.00100      1      751   751     579
   580   -0.44000  -54.94000    0.01000    -0.34000  -54.94000    0.01000    0.00100      1      752   752     580
   581   -0.44000  -54.84000    0.01000    -0.34000  -54.84000    0.01000    0.00100      1      753   753     581
   582   -0.44000  -54.74000    0.01000    -0.34000  -54.74000    0.01000    0.00100      1      754   754     582
   583   -0.44000  -54.64000    0.01000    -0.34000  -54.64000    0.01000    0.00100      1      755   755     583
   584   -0.44000  -54.54000    0.01000    -0.34000  -54.54000    0.01000    0.00100      1      756   756     584
   585   -0.44000  -54.44000    0.01000    -0.34000  -54.44000    0.01000    0.00100      1      757   757     585
   586   -0.44000  -54.34000    0.01000    -0.34000  -54.34000    0.01000    0.00100      1      758   758     586
   587   -0.44000  -54.24000    0.01000    -0.34000  -54.24000    0.01000    0.00100      1      759   759     587
   588   -0.44000  -54.14000    0.01000    -0.34000  -54.14000    0.01000    0.00100      1      760   760     588
   589   -0.44000  -54.04000    0.01000    -0.34000  -54.04000    0.01000    0.00100      1      761   761     589
   590   -0.44000  -53.94000    0.01000    -0.34000  -53.94000    0.01000    0.00100      1      762   762     590
   591   -0.44000  -53.84000    0.01000    -0.34000  -53.84000    0.01000    0.00100      1      763   763     591
   592   -0.44000  -53.74000    0.01000    -0.34000  -53.74000    0.01000    0.00100      1      764   764     592
   593   -0.44000  -53.64000    0.01000    -0.34000  -53.64000    0.01000    0.00100      1      765   765     593
   594   -0.44000  -53.54000    0.01000    -0.34000  -53.54000    0.01000    0.00100      1      766   766     594
   595   -0.44000  -53.44000    0.01000    -0.34000  -53.44000    0.01000    0.00100      1      767   767     595
   596   -0.44000  -53.34000    0.01000    -0.34000  -53.34000    0.01000    0.00100      1      768   768     596
   597   -0.44000  -53.24000    0.01000    -0.34000  -53.24000    0.01000    0.00100      1      769   769     597
   598   -0.44000  -53.14000    0.01000    -0.34000  -53.14000    0.01000    0.00100      1      770   770     598
   599   -0.34000  -56.14000    0.01000    -0.24000  -56.14000    0.01000    0.00100      1      771   771     599
   600   -0.34000  -56.04000    0.01000    -0.24000  -56.04000    0.01000    0.00100      1      772   772     600
   601   -0.34000  -55.94000    0.01000    -0.24000  -55.94000    0.01000    0.00100      1      773   773     601
   602   -0.34000  -55.84000    0.01000    -0.24000  -55.84000    0.01000    0.00100      1      774   774     602
   603   -0.34000  -55.74000    0.01000    -0.24000  -55.74000    0.01000    0.00100      1      775   775     603
   604   -0.34000  -55.64000    0.01000    -0.24000  -55.64000    0.01000    0.00100      1      776   776     604
   605   -0.34000  -55.54000    0.01000    -0.24000  -55.54000    0.01000    0.00100      1      777   777     605
   606   -0.34000  -55.44000    0.01000    -0.24000  -55.44000    0.01000    0.00100      1      778   778     606
   607   -0.34000  -55.34000    0.01000    -0.24000  -55.34000    0.01000    0.00100      1      779   779     607
   608   -0.34000  -55.24000    0.01000    -0.24000  -55.24000    0.01000    0.00100      1      780   780     608
   609   -0.34000  -55.14000    0.01000    -0.24000  -55.14000    0.01000    0.00100      1      781   781     609
   610   -0.34000  -55.04000    0.01000    -0.24000  -55.04000    0.01000    0.00100      1      782   782     610
   611   -0.34000  -54.94000    0.01000    -0.24000  -54.94000    0.01000    0.00100      1      783   783     611
   612   -0.34000  -54.84000    0.01000    -0.24000  -54.84000    0.01000    0.00100      1      784   784     612
   613   -0.34000  -54.74000    0.01000    -0.24000  -54.74000    0.01000    0.00100      1      785   785     613
   614   -0.34000  -54.64000    0.01000    -0.24000  -54.64000    0.01000    0.00100      1      786   786     614
   615   -0.34000  -54.54000    0.01000    -0.24000  -54.54000    0.01000    0.00100      1      787   787     615
   616   -0.34000  -54.44000    0.01000    -0.24000  -54.44000    0.01000    0.00100      1      788   788     616
   617   -0.34000  -54.34000    0.01000    -0.24000  -54.34000    0.01000    0.00100      1      789   789     617
   618   -0.34000  -54.24000    0.01000    -0.24000  -54.24000    0.01000    0.00100      1      790   790     618
   619   -0.34000  -54.14000    0.01000    -0.24000  -54.14000    0.01000    0.00100      1      791   791     619
   620   -0.34000  -54.04000    0.01000    -0.24000  -54.04000    0.01000    0.00100      1      792   792     620
   621   -0.34000  -53.94000    0.01000    -0.24000  -53.94000    0.01000    0.00100      1      793   793     621
   622   -0.34000  -53.84000    0.01000    -0.24000  -53.84000    0.01000    0.00100      1      794   794     622
   623   -0.34000  -53.74000    0.01000    -0.24000  -53.74000    0.01000    0.00100      1      795   795     623
   624   -0.34000  -53.64000    0.01000    -0.24000  -53.64000    0.01000    0.00100      1      796   796     624
   625   -0.34000  -53.54000    0.01000    -0.24000  -53.54000    0.01000    0.00100      1      797   797     625
   626   -0.34000  -53.44000    0.01000    -0.24000  -53.44000    0.01000    0.00100      1      798   798     626
   627   -0.34000  -53.34000    0.01000    -0.24000  -53.34000    0.01000    0.00100      1      799   799     627
   628   -0.34000  -53.24000    0.01000    -0.24000  -53.24000    0.01000    0.00100      1      800   800     628
   629   -0.34000  -53.14000    0.01000    -0.24000  -53.14000    0.01000    0.00100      1      801   801     629
   630   -0.24000  -56.14000    0.01000    -0.14000  -56.14000    0.01000    0.00100      1      802   802     630
   631   -0.24000  -56.04000    0.01000    -0.14000  -56.04000    0.01000    0.00100      1      803   803     631
   632   -0.24000  -55.94000    0.01000    -0.14000  -55.94000    0.01000    0.00100      1      804   804     632
   633   -0.24000  -55.84000    0.01000    -0.14000  -55.84000    0.01000    0.00100      1      805   805     633
   634   -0.24000  -55.74000    0.01000    -0.14000  -55.74000    0.01000    0.00100      1      806   806     634
   635   -0.24000  -55.64000    0.01000    -0.14000  -55.64000    0.01000    0.00100      1      807   807     635
   636   -0.24000  -55.54000    0.01000    -0.14000  -55.54000    0.01000    0.00100      1      808   808     636
   637   -0.24000  -55.44000    0.01000    -0.14000  -55.44000    0.01000    0.00100      1      809   809     637
   638   -0.24000  -55.34000    0.01000    -0.14000  -55.34000    0.01000    0.00100      1      810   810     638
   639   -0.24000  -55.24000    0.01000    -0.14000  -55.24000    0.01000    0.00100      1      811   811     639
   640   -0.24000  -55.14000    0.01000    -0.14000  -55.14000    0.01000    0.00100      1      812   812     640
   641   -0.24000  -55.04000    0.01000    -0.14000  -55.04000    0.01000    0.00100      1      813   813     641
   642   -0.24000  -54.94000    0.01000    -0.14000  -54.94000    0.01000    0.00100      1      814   814     642
   643   -0.24000  -54.84000    0.01000    -0.14000  -54.84000    0.01000    0.00100      1      815   815     643
   644   -0.24000  -54.74000    0.01000    -0.14000  -54.74000    0.01000    0.00100      1      816   816     644
   645   -0.24000  -54.64000    0.01000    -0.14000  -54.64000    0.01000    0.00100      1      817   817     645
   646   -0.24000  -54.54000    0.01000    -0.14000  -54.54000    0.01000    0.00100      1      818   818     646
   647   -0.24000  -54.44000    0.01000    -0.14000  -54.44000    0.01000    0.00100      1      819   819     647
   648   -0.24000  -54.34000    0.01000    -0.14000  -54.34000    0.01000    0.00100      1      820   820     648
   649   -0.24000  -54.24000    0.01000    -0.14000  -54.24000    0.01000    0.00100      1      821   821     649
   650   -0.24000  -54.14000    0.01000    -0.14000  -54.14000    0.01000    0.00100      1      822   822     650
   651   -0.24000  -54.04000    0.01000    -0.14000  -54.04000    0.01000    0.00100      1      823   823     651
   652   -0.24000  -53.94000    0.01000    -0.14000  -53.94000    0.01000    0.00100      1      824   824     652
   653   -0.24000  -53.84000    0.01000    -0.14000  -53.84000    0.01000    0.00100      1      825   825     653
   654   -0.24000  -53.74000    0.01000    -0.14000  -53.74000    0.01000    0.00100      1      826   826     654
   655   -0.24000  -53.64000    0.01000    -0.14000  -53.64000    0.01000    0.00100      1      827   827     655
   656   -0.24000  -53.54000    0.01000    -0.14000  -53.54000    0.01000    0.00100      1      828   828     656
   657   -0.24000  -53.44000    0.01000    -0.14000  -53.44000    0.01000    0.00100      1      829   829     657
   658   -0.24000  -53.34000    0.01000    -0.14000  -53.34000    0.01000    0.00100      1      830   830     658
   659   -0.24000  -53.24000    0.01000    -0.14000  -53.24000    0.01000    0.00100      1      831   831     659
   660   -0.24000  -53.14000    0.01000    -0.14000  -53.14000    0.01000    0.00100      1      832   832     660
   661   -0.14000  -56.14000    0.01000    -0.04000  -56.14000    0.01000    0.00100      1      833   833     661
   662   -0.14000  -56.04000    0.01000    -0.04000  -56.04000    0.01000    0.00100      1      834   834     662
   663   -0.14000  -55.94000    0.01000    -0.04000  -55.94000    0.01000    0.00100      1      835   835     663
   664   -0.14000  -55.84000    0.01000    -0.04000  -55.84000    0.01000    0.00100      1      836   836     664
   665   -0.14000  -55.74000    0.01000    -0.04000  -55.74000    0.01000    0.00100      1      837   837     665
   666   -0.14000  -55.64000    0.01000    -0.04000  -55.64000    0.01000    0.00100      1      838   838     666
   667   -0.14000  -55.54000    0.01000    -0.04000  -55.54000    0.01000    0.00100      1      839   839     667
   668   -0.14000  -55.44000    0.01000    -0.04000  -55.44000    0.01000    0.00100      1      840   840     668
   669   -0.14000  -55.34000    0.01000    -0.04000  -55.34000    0.01000    0.00100      1      841   841     669
   670   -0.14000  -55.24000    0.01000    -0.04000  -55.24000    0.01000    0.00100      1      842   842     670
   671   -0.14000  -55.14000    0.01000    -0.04000  -55.14000    0.01000    0.00100      1      843   843     671
   672   -0.14000  -55.04000    0.01000    -0.04000  -55.04000    0.01000    0.00100      1      844   844     672
   673   -0.14000  -54.94000    0.01000    -0.04000  -54.94000    0.01000    0.00100      1      845   845     673
   674   -0.14000  -54.84000    0.01000    -0.04000  -54.84000    0.01000    0.00100      1      846   846     674
   675   -0.14000  -54.74000    0.01000    -0.04000  -54.74000    0.01000    0.00100      1      847   847     675
   676   -0.14000  -54.64000    0.01000    -0.04000  -54.64000    0.01000    0.00100      1      848   848     676
   677   -0.14000  -54.54000    0.01000    -0.04000  -54.54000    0.01000    0.00100      1      849   849     677
   678   -0.14000  -54.44000    0.01000    -0.04000  -54.44000    0.01000    0.00100      1      850   850     678
   679   -0.14000  -54.34000    0.01000    -0.04000  -54.34000    0.01000    0.00100      1      851   851     679
   680   -0.14000  -54.24000    0.01000    -0.04000  -54.24000    0.01000    0.00100      1      852   852     680
   681   -0.14000  -54.14000    0.01000    -0.04000  -54.14000    0.01000    0.00100      1      853   853     681
   682   -0.14000  -54.04000    0.01000    -0.04000  -54.04000    0.01000    0.00100      1      854   854     682
   683   -0.14000  -53.94000    0.01000    -0.04000  -53.94000    0.01000    0.00100      1      855   855     683
   684   -0.14000  -53.84000    0.01000    -0.04000  -53.84000    0.01000    0.00100      1      856   856     684
[...]


 GNDINO: UNABLE TO OPEN FILE SOMD93.NEC                              
 WILL COMPUTE SOMMERFELD-GROUND TABLES

 Time to generate Sommerfeld ground tables =   0.05 seconds

                                        FINITE GROUND.  SOMMERFELD SOLUTION
                                        RELATIVE DIELECTRIC CONST.=  3.000
                                        CONDUCTIVITY= 5.000E-03 MHOS/METER
                                        COMPLEX DIELECTRIC CONSTANT= 3.00000E+00-9.17117E-01



                               - - - STRUCTURE IMPEDANCE LOADING - - -


       LOCATION          RESISTANCE   INDUCTANCE  CAPACITANCE       IMPEDANCE (OHMS)     CONDUCTIVITY    TYPE
    ITAG FROM THRU          OHMS        HENRYS       FARADS        REAL      IMAGINARY    MHOS/METER

      21    2    2                                                                                    FIXED IMPEDANCE 

      42    2    2                                                                                    FIXED IMPEDANCE 



                                - - - MATRIX TIMING - - -

                        FILL=   18.126 SEC.,  FACTOR=    8.760 SEC.



                                          - - - ANTENNA INPUT PARAMETERS - - -

   TAG   SEG.    VOLTAGE (VOLTS)         CURRENT (AMPS)         IMPEDANCE (OHMS)        ADMITTANCE (MHOS)      POWER
   NO.   NO.    REAL        IMAG.       REAL        IMAG.       REAL        IMAG.       REAL        IMAG.     (WATTS)
    21   106 1.00000E+00 0.00000E+00 4.16452E-03 1.62869E-03 2.08269E+02-8.14515E+01 4.16452E-03 1.62869E-03 2.08226E-03



                             - - - CURRENTS AND LOCATION - - -

                     LENGTHS NORMALIZED BY WAVELENGTH (OR 2.*PI/CABS(K))

  SEG.  TAG    COORD. OF SEG. CENTER     SEG.            - - - CURRENT (AMPS) - - -
  NO.   NO.     X        Y        Z      LENGTH     REAL        IMAG.       MAG.        PHASE
   106   21  -0.2092 -17.8610   0.4962  0.01384   4.1645E-03  1.6287E-03  4.4717E-03   21.360



                                        - - - POWER BUDGET - - -

                                           INPUT POWER   = 2.0823E-03 WATTS
                                           RADIATED POWER= 2.0823E-03 WATTS
                                           WIRE LOSS     = 0.0000E+00 WATTS
                                           EFFICIENCY    = 100.00 PERCENT




                                 - - - - - - FREQUENCY - - - - - -

                                    FREQUENCY= 9.9000E+01 MHZ
                                    WAVELENGTH= 3.0283E+00 METERS



                                  - - - ANTENNA ENVIRONMENT - - -


 GNDINO: UNABLE TO OPEN FILE SOMD94.NEC                              
 WILL COMPUTE SOMMERFELD-GROUND TABLES

 Time to generate Sommerfeld ground tables =   0.05 seconds

                                        FINITE GROUND.  SOMMERFELD SOLUTION
                                        RELATIVE DIELECTRIC CONST.=  3.000
                                        CONDUCTIVITY= 5.000E-03 MHOS/METER
                                        COMPLEX DIELECTRIC CONSTANT= 3.00000E+00-9.07853E-01



                               - - - STRUCTURE IMPEDANCE LOADING - - -


       LOCATION          RESISTANCE   INDUCTANCE  CAPACITANCE       IMPEDANCE (OHMS)     CONDUCTIVITY    TYPE
    ITAG FROM THRU          OHMS        HENRYS       FARADS        REAL      IMAGINARY    MHOS/METER

      21    2    2                                                                                    FIXED IMPEDANCE 

      42    2    2                                                                                    FIXED IMPEDANCE 



                                - - - MATRIX TIMING - - -

                        FILL=   17.976 SEC.,  FACTOR=    8.930 SEC.



                                          - - - ANTENNA INPUT PARAMETERS - - -

   TAG   SEG.    VOLTAGE (VOLTS)         CURRENT (AMPS)         IMPEDANCE (OHMS)        ADMITTANCE (MHOS)      POWER
   NO.   NO.    REAL        IMAG.       REAL        IMAG.       REAL        IMAG.       REAL        IMAG.     (WATTS)
    21   106 1.00000E+00 0.00000E+00 4.24949E-03 1.57383E-03 2.06938E+02-7.66409E+01 4.24949E-03 1.57383E-03 2.12475E-03



                             - - - CURRENTS AND LOCATION - - -

                     LENGTHS NORMALIZED BY WAVELENGTH (OR 2.*PI/CABS(K))

  SEG.  TAG    COORD. OF SEG. CENTER     SEG.            - - - CURRENT (AMPS) - - -
  NO.   NO.     X        Y        Z      LENGTH     REAL        IMAG.       MAG.        PHASE
   106   21  -0.2113 -18.0432   0.5013  0.01398   4.2495E-03  1.5738E-03  4.5316E-03   20.322



                                        - - - POWER BUDGET - - -

                                           INPUT POWER   = 2.1247E-03 WATTS
                                           RADIATED POWER= 2.1247E-03 WATTS
                                           WIRE LOSS     = 0.0000E+00 WATTS
                                           EFFICIENCY    = 100.00 PERCENT




                                 - - - - - - FREQUENCY - - - - - -

                                    FREQUENCY= 1.0000E+02 MHZ
                                    WAVELENGTH= 2.9980E+00 METERS



                                  - - - ANTENNA ENVIRONMENT - - -


 GNDINO: UNABLE TO OPEN FILE SOMD95.NEC                              
 WILL COMPUTE SOMMERFELD-GROUND TABLES

 Time to generate Sommerfeld ground tables =   0.05 seconds

                                        FINITE GROUND.  SOMMERFELD SOLUTION
                                        RELATIVE DIELECTRIC CONST.=  3.000
                                        CONDUCTIVITY= 5.000E-03 MHOS/METER
                                        COMPLEX DIELECTRIC CONSTANT= 3.00000E+00-8.98774E-01



                               - - - STRUCTURE IMPEDANCE LOADING - - -


       LOCATION          RESISTANCE   INDUCTANCE  CAPACITANCE       IMPEDANCE (OHMS)     CONDUCTIVITY    TYPE
    ITAG FROM THRU          OHMS        HENRYS       FARADS        REAL      IMAGINARY    MHOS/METER

      21    2    2                                                                                    FIXED IMPEDANCE 

      42    2    2                                                                                    FIXED IMPEDANCE 



                                - - - MATRIX TIMING - - -

                        FILL=   18.073 SEC.,  FACTOR=    8.797 SEC.



                                          - - - ANTENNA INPUT PARAMETERS - - -

   TAG   SEG.    VOLTAGE (VOLTS)         CURRENT (AMPS)         IMPEDANCE (OHMS)        ADMITTANCE (MHOS)      POWER
   NO.   NO.    REAL        IMAG.       REAL        IMAG.       REAL        IMAG.       REAL        IMAG.     (WATTS)
    21   106 1.00000E+00 0.00000E+00 4.32254E-03 1.51358E-03 2.06078E+02-7.21600E+01 4.32254E-03 1.51358E-03 2.16127E-03



                             - - - CURRENTS AND LOCATION - - -

                     LENGTHS NORMALIZED BY WAVELENGTH (OR 2.*PI/CABS(K))

  SEG.  TAG    COORD. OF SEG. CENTER     SEG.            - - - CURRENT (AMPS) - - -
  NO.   NO.     X        Y        Z      LENGTH     REAL        IMAG.       MAG.        PHASE
   106   21  -0.2135 -18.2255   0.5063  0.01412   4.3225E-03  1.5136E-03  4.5799E-03   19.298



                                        - - - POWER BUDGET - - -

                                           INPUT POWER   = 2.1613E-03 WATTS
                                           RADIATED POWER= 2.1613E-03 WATTS
                                           WIRE LOSS     = 0.0000E+00 WATTS
                                           EFFICIENCY    = 100.00 PERCENT



                                    - - - INPUT IMPEDANCE DATA - - -
                                             SOURCE SEGMENT NO. 106
                                             NORMALIZATION FACTOR= 1.20018E+03

       FREQ.             -  -  UNNORMALIZED IMPEDANCE  -  -                     -  -  NORMALIZED IMPEDANCE  -  -
                   RESISTANCE    REACTANCE      MAGNITUDE    PHASE       RESISTANCE    REACTANCE      MAGNITUDE    PHASE
        MHZ           OHMS          OHMS           OHMS     DEGREES                                               DEGREES

       5.000     1.96965E+00  -1.20018E+03    1.20018E+03   -89.91     1.64113E-03  -9.99999E-01    1.00000E+00   -89.91
       6.000     1.79730E+00  -9.93598E+02    9.93600E+02   -89.90     1.49753E-03  -8.27875E-01    8.27876E-01   -89.90
       7.000     1.68497E+00  -8.44695E+02    8.44696E+02   -89.89     1.40393E-03  -7.03807E-01    7.03808E-01   -89.89
       8.000     1.61692E+00  -7.31905E+02    7.31907E+02   -89.87     1.34723E-03  -6.09830E-01    6.09831E-01   -89.87
       9.000     1.58275E+00  -6.43292E+02    6.43294E+02   -89.86     1.31876E-03  -5.35997E-01    5.35998E-01   -89.86
      10.000     1.57447E+00  -5.71564E+02    5.71566E+02   -89.84     1.31186E-03  -4.76232E-01    4.76234E-01   -89.84
      11.000     1.58665E+00  -5.12106E+02    5.12109E+02   -89.82     1.32201E-03  -4.26691E-01    4.26693E-01   -89.82
      12.000     1.61585E+00  -4.61847E+02    4.61850E+02   -89.80     1.34634E-03  -3.84815E-01    3.84817E-01   -89.80
      13.000     1.65950E+00  -4.18696E+02    4.18699E+02   -89.77     1.38271E-03  -3.48861E-01    3.48864E-01   -89.77
      14.000     1.71691E+00  -3.81012E+02    3.81016E+02   -89.74     1.43054E-03  -3.17463E-01    3.17466E-01   -89.74
      15.000     1.78841E+00  -3.47742E+02    3.47746E+02   -89.71     1.49012E-03  -2.89741E-01    2.89745E-01   -89.71
      16.000     1.87394E+00  -3.18031E+02    3.18036E+02   -89.66     1.56138E-03  -2.64986E-01    2.64991E-01   -89.66
      17.000     1.97466E+00  -2.91233E+02    2.91240E+02   -89.61     1.64531E-03  -2.42658E-01    2.42663E-01   -89.61
      18.000     2.09112E+00  -2.66842E+02    2.66851E+02   -89.55     1.74234E-03  -2.22335E-01    2.22342E-01   -89.55
      19.000     2.22711E+00  -2.44465E+02    2.44475E+02   -89.48     1.85565E-03  -2.03690E-01    2.03699E-01   -89.48
      20.000     2.38592E+00  -2.23761E+02    2.23773E+02   -89.39     1.98797E-03  -1.86439E-01    1.86450E-01   -89.39
      21.000     2.57196E+00  -2.04472E+02    2.04488E+02   -89.28     2.14298E-03  -1.70368E-01    1.70381E-01   -89.28
      22.000     2.79085E+00  -1.86383E+02    1.86404E+02   -89.14     2.32536E-03  -1.55296E-01    1.55313E-01   -89.14
      23.000     3.04919E+00  -1.69311E+02    1.69338E+02   -88.97     2.54061E-03  -1.41071E-01    1.41094E-01   -88.97
      24.000     3.35403E+00  -1.53102E+02    1.53138E+02   -88.75     2.79461E-03  -1.27566E-01    1.27596E-01   -88.75
      25.000     3.71387E+00  -1.37625E+02    1.37675E+02   -88.45     3.09443E-03  -1.14670E-01    1.14712E-01   -88.45
      26.000     4.13677E+00  -1.22767E+02    1.22836E+02   -88.07     3.44680E-03  -1.02290E-01    1.02348E-01   -88.07
      27.000     4.63399E+00  -1.08428E+02    1.08527E+02   -87.55     3.86108E-03  -9.03429E-02    9.04253E-02   -87.55
      28.000     5.21817E+00  -9.45244E+01    9.46683E+01   -86.84     4.34783E-03  -7.87586E-02    7.88785E-02   -86.84
      29.000     5.90277E+00  -8.09792E+01    8.11940E+01   -85.83     4.91824E-03  -6.74726E-02    6.76516E-02   -85.83
      30.000     6.70204E+00  -6.77265E+01    6.80573E+01   -84.35     5.58420E-03  -5.64303E-02    5.67059E-02   -84.35
      31.000     7.63325E+00  -5.47038E+01    5.52338E+01   -82.06     6.36009E-03  -4.55797E-02    4.60213E-02   -82.06
      32.000     8.71391E+00  -4.18580E+01    4.27554E+01   -78.24     7.26051E-03  -3.48764E-02    3.56242E-02   -78.24
      33.000     9.96476E+00  -2.91431E+01    3.07996E+01   -71.12     8.30272E-03  -2.42823E-02    2.56625E-02   -71.12
      34.000     1.14071E+01  -1.65069E+01    2.00649E+01   -55.35     9.50449E-03  -1.37537E-02    1.67182E-02   -55.35
      35.000     1.30656E+01  -3.90751E+00    1.36374E+01   -16.65     1.08864E-02  -3.25577E-03    1.13628E-02   -16.65
      36.000     1.49682E+01   8.69309E+00    1.73095E+01    30.15     1.24716E-02   7.24316E-03    1.44224E-02    30.15
      37.000     1.71435E+01   2.13318E+01    2.73669E+01    51.21     1.42841E-02   1.77739E-02    2.28023E-02    51.21
      38.000     1.96311E+01   3.40430E+01    3.92977E+01    60.03     1.63568E-02   2.83650E-02    3.27432E-02    60.03
      39.000     2.24708E+01   4.68605E+01    5.19696E+01    64.38     1.87228E-02   3.90446E-02    4.33016E-02    64.38
      40.000     2.57074E+01   5.98136E+01    6.51040E+01    66.74     2.14196E-02   4.98372E-02    5.42452E-02    66.74
      41.000     2.93929E+01   7.29257E+01    7.86263E+01    68.05     2.44904E-02   6.07623E-02    6.55122E-02    68.05
      42.000     3.35886E+01   8.62271E+01    9.25381E+01    68.72     2.79863E-02   7.18452E-02    7.71036E-02    68.72
      43.000     3.83637E+01   9.97352E+01    1.06859E+02    68.96     3.19650E-02   8.31002E-02    8.90360E-02    68.96
      44.000     4.37944E+01   1.13463E+02    1.21622E+02    68.89     3.64898E-02   9.45388E-02    1.01336E-01    68.89
      45.000     4.99670E+01   1.27418E+02    1.36865E+02    68.59     4.16329E-02   1.06166E-01    1.14037E-01    68.59
      46.000     5.69850E+01   1.41602E+02    1.52638E+02    68.08     4.74804E-02   1.17984E-01    1.27179E-01    68.08
      47.000     6.49586E+01   1.56001E+02    1.68985E+02    67.39     5.41241E-02   1.29981E-01    1.40800E-01    67.39
      48.000     7.40126E+01   1.70591E+02    1.85954E+02    66.55     6.16679E-02   1.42138E-01    1.54939E-01    66.55
      49.000     8.42905E+01   1.85327E+02    2.03595E+02    65.54     7.02316E-02   1.54416E-01    1.69637E-01    65.54
      50.000     9.59478E+01   2.00142E+02    2.21952E+02    64.39     7.99445E-02   1.66760E-01    1.84933E-01    64.39
      51.000     1.09161E+02   2.14942E+02    2.41073E+02    63.08     9.09539E-02   1.79092E-01    2.00864E-01    63.08
      52.000     1.24117E+02   2.29592E+02    2.60993E+02    61.60     1.03416E-01   1.91298E-01    2.17462E-01    61.60
      53.000     1.41017E+02   2.43899E+02    2.81732E+02    59.96     1.17497E-01   2.03219E-01    2.34741E-01    59.96
      54.000     1.60063E+02   2.57626E+02    3.03300E+02    58.15     1.33366E-01   2.14656E-01    2.52712E-01    58.15
      55.000     1.81452E+02   2.70457E+02    3.25687E+02    56.14     1.51188E-01   2.25347E-01    2.71365E-01    56.14
      56.000     2.05351E+02   2.81980E+02    3.48829E+02    53.94     1.71100E-01   2.34948E-01    2.90648E-01    53.94
      57.000     2.31865E+02   2.91668E+02    3.72601E+02    51.52     1.93192E-01   2.43020E-01    3.10454E-01    51.52
      58.000     2.61013E+02   2.98892E+02    3.96818E+02    48.87     2.17478E-01   2.49040E-01    3.30632E-01    48.87
      59.000     2.92674E+02   3.02952E+02    4.21234E+02    45.99     2.43859E-01   2.52423E-01    3.50976E-01    45.99
      60.000     3.26548E+02   3.03069E+02    4.45516E+02    42.86     2.72083E-01   2.52520E-01    3.71208E-01    42.86
      61.000     3.62084E+02   2.98426E+02    4.69216E+02    39.50     3.01692E-01   2.48651E-01    3.90955E-01    39.50
      62.000     3.98423E+02   2.88268E+02    4.91772E+02    35.89     3.31970E-01   2.40188E-01    4.09749E-01    35.89
      63.000     4.34158E+02   2.71926E+02    5.12286E+02    32.06     3.61744E-01   2.26572E-01    4.26841E-01    32.06
      64.000     4.67866E+02   2.49217E+02    5.30102E+02    28.04     3.89830E-01   2.07650E-01    4.41686E-01    28.04
      65.000     4.98164E+02   2.20448E+02    5.44761E+02    23.87     4.15075E-01   1.83679E-01    4.53900E-01    23.87
      66.000     5.23489E+02   1.86360E+02    5.55672E+02    19.60     4.36176E-01   1.55277E-01    4.62990E-01    19.60
      67.000     5.42539E+02   1.48183E+02    5.62411E+02    15.28     4.52048E-01   1.23467E-01    4.68606E-01    15.28
      68.000     5.54447E+02   1.07581E+02    5.64788E+02    10.98     4.61970E-01   8.96377E-02    4.70586E-01    10.98
      69.000     5.58927E+02   6.63924E+01    5.62856E+02     6.77     4.65703E-01   5.53187E-02    4.68977E-01     6.77
      70.000     5.56464E+02   2.63736E+01    5.57089E+02     2.71     4.63651E-01   2.19748E-02    4.64171E-01     2.71
      71.000     5.47514E+02  -1.09317E+01    5.47624E+02    -1.14     4.56194E-01  -9.10840E-03    4.56285E-01    -1.14
      72.000     5.33410E+02  -4.44284E+01    5.35257E+02    -4.76     4.44442E-01  -3.70181E-02    4.45981E-01    -4.76
      73.000     5.15393E+02  -7.34479E+01    5.20600E+02    -8.11     4.29430E-01  -6.11974E-02    4.33768E-01    -8.11
      74.000     4.94816E+02  -9.77750E+01    5.04384E+02   -11.18     4.12285E-01  -8.14670E-02    4.20257E-01   -11.18
      75.000     4.72750E+02  -1.17491E+02    4.87132E+02   -13.96     3.93900E-01  -9.78949E-02    4.05882E-01   -13.96
      76.000     4.50128E+02  -1.32901E+02    4.69338E+02   -16.45     3.75051E-01  -1.10734E-01    3.91057E-01   -16.45
      77.000     4.27662E+02  -1.44450E+02    4.51398E+02   -18.66     3.56331E-01  -1.20357E-01    3.76109E-01   -18.66
      78.000     4.05862E+02  -1.52632E+02    4.33613E+02   -20.61     3.38168E-01  -1.27175E-01    3.61291E-01   -20.61
      79.000     3.85078E+02  -1.57939E+02    4.16209E+02   -22.30     3.20850E-01  -1.31596E-01    3.46789E-01   -22.30
      80.000     3.65530E+02  -1.60842E+02    3.99352E+02   -23.75     3.04563E-01  -1.34015E-01    3.32744E-01   -23.75
      81.000     3.47328E+02  -1.61776E+02    3.83155E+02   -24.97     2.89397E-01  -1.34793E-01    3.19248E-01   -24.97
      82.000     3.30513E+02  -1.61105E+02    3.67687E+02   -25.99     2.75386E-01  -1.34234E-01    3.06360E-01   -25.99
      83.000     3.15080E+02  -1.59141E+02    3.52989E+02   -26.80     2.62527E-01  -1.32598E-01    2.94114E-01   -26.80
      84.000     3.00989E+02  -1.56140E+02    3.39078E+02   -27.42     2.50787E-01  -1.30098E-01    2.82523E-01   -27.42
      85.000     2.88177E+02  -1.52324E+02    3.25958E+02   -27.86     2.40112E-01  -1.26917E-01    2.71591E-01   -27.86
      86.000     2.76576E+02  -1.47878E+02    3.13627E+02   -28.13     2.30445E-01  -1.23213E-01    2.61317E-01   -28.13
      87.000     2.66113E+02  -1.42947E+02    3.02076E+02   -28.24     2.21728E-01  -1.19105E-01    2.51693E-01   -28.24
      88.000     2.56716E+02  -1.37660E+02    2.91296E+02   -28.20     2.13898E-01  -1.14699E-01    2.42711E-01   -28.20
      89.000     2.48313E+02  -1.32114E+02    2.81271E+02   -28.02     2.06896E-01  -1.10079E-01    2.34357E-01   -28.02
      90.000     2.40844E+02  -1.26390E+02    2.71994E+02   -27.69     2.00674E-01  -1.05309E-01    2.26627E-01   -27.69
      91.000     2.34246E+02  -1.20566E+02    2.63453E+02   -27.23     1.95176E-01  -1.00456E-01    2.19511E-01   -27.23
      92.000     2.28464E+02  -1.14703E+02    2.55641E+02   -26.66     1.90358E-01  -9.55712E-02    2.13002E-01   -26.66
      93.000     2.23444E+02  -1.08857E+02    2.48550E+02   -25.97     1.86176E-01  -9.07003E-02    2.07094E-01   -25.97
      94.000     2.19140E+02  -1.03068E+02    2.42168E+02   -25.19     1.82589E-01  -8.58772E-02    2.01777E-01   -25.19
      95.000     2.15509E+02  -9.73931E+01    2.36495E+02   -24.32     1.79564E-01  -8.11488E-02    1.97049E-01   -24.32
      96.000     2.12514E+02  -9.18729E+01    2.31523E+02   -23.38     1.77069E-01  -7.65493E-02    1.92907E-01   -23.38
      97.000     2.10114E+02  -8.65433E+01    2.27239E+02   -22.39     1.75069E-01  -7.21087E-02    1.89338E-01   -22.39
      98.000     2.08269E+02  -8.14515E+01    2.23630E+02   -21.36     1.73532E-01  -6.78661E-02    1.86331E-01   -21.36
      99.000     2.06938E+02  -7.66409E+01    2.20674E+02   -20.32     1.72422E-01  -6.38579E-02    1.83868E-01   -20.32
     100.000     2.06078E+02  -7.21600E+01    2.18346E+02   -19.30     1.71706E-01  -6.01243E-02    1.81928E-01   -19.30







 ***** INPUT LINE  9  EN   0    0    0    0  0.00000E+00  0.00000E+00  0.00000E+00  0.00000E+00  0.00000E+00  0.00000E+00

 RUN TIME =  2318.560
